23

C      -1.996794    1.689250   -1.018308
C      -1.994068    0.178306   -1.249372
O      -1.190089   -0.170706   -2.378214
C      -1.572904   -0.593858    0.009294
C      -1.438232   -2.122295   -0.165918
C      -0.902103   -2.760862    1.120998
C      -2.758240   -2.717378   -0.627601
C      -3.341350   -3.971465   -0.133599
O      -3.843976   -2.709009    0.310687
H      -2.294264    2.212882   -1.930852
H      -2.688771    1.965569   -0.216259
H      -0.997671    2.041338   -0.730892
H      -3.005285   -0.128700   -1.539219
H      -0.292887    0.134662   -2.201661
H      -0.606997   -0.197152    0.354678
H      -2.296059   -0.387517    0.808252
H      -0.723213   -2.297342   -0.979455
H      -1.648766   -2.706417    1.919928
H      -0.635424   -3.811135    0.971129
H      -0.004066   -2.238251    1.464526
H      -3.055977   -2.412732   -1.631644
H      -4.011443   -4.539496   -0.778345
H      -2.826260   -4.558084    0.623428
