20

N      -0.173591   -1.092119    0.586692
C      -0.119888    0.020183    0.277428
C      -0.030895    1.432630   -0.107485
C       1.395263    1.954894   -0.110618
C       1.951862    2.411281   -1.233951
C       3.337021    2.997834   -1.310401
C       3.908269    3.324581    0.076550
C       3.627875    2.183505    1.060166
C       2.118528    1.951414    1.216448
H      -0.486796    1.553268   -1.095368
H      -0.646665    2.006068    0.599452
H       1.388070    2.366921   -2.164146
H       3.996843    2.290748   -1.835269
H       3.319023    3.897427   -1.938380
H       4.983152    3.519810    0.004923
H       3.444050    4.246167    0.451082
H       4.096390    1.263110    0.689220
H       4.075754    2.393196    2.036924
H       1.680577    2.725569    1.865482
H       1.934275    1.000039    1.730861
