22

C      -0.330675    1.455383   -0.170876
C      -0.087930   -0.048685   -0.091603
C       0.674324   -0.659101   -1.297927
C       1.512251   -1.812806   -0.695678
C       1.545624   -1.538725    0.805279
C       2.052463   -0.229594    1.295533
C       2.953020    0.705322    0.507477
O       4.319936    0.363434    0.702744
N       0.599428   -0.461408    1.152098
H       0.605401    2.012287   -0.279453
H      -0.961381    1.694326   -1.033330
H      -0.836816    1.811814    0.730725
H      -1.066551   -0.541941   -0.024913
H      -0.018015   -1.014958   -2.066256
H       1.308200    0.090876   -1.779701
H       1.028735   -2.779188   -0.869578
H       2.514292   -1.874550   -1.131796
H       1.569120   -2.399758    1.469283
H       2.314342   -0.194036    2.356280
H       2.792640    0.642500   -0.568531
H       2.761415    1.747756    0.807026
H       4.514152    0.448522    1.641950
