23

O      -0.101229    1.437162   -0.178634
C       0.004866    0.033782    0.012034
C      -1.396480   -0.558389   -0.050455
C      -1.415600   -2.077732    0.148292
C      -2.815654   -2.673390    0.075940
C      -3.555679   -2.700864   -1.294614
C      -4.105508   -4.091073   -0.923897
O      -4.144582   -4.999071   -2.000757
C      -2.977732   -4.219133    0.137323
H       0.783473    1.812382   -0.147795
H       0.637903   -0.427012   -0.764432
H       0.465036   -0.201991    0.986197
H      -2.013065   -0.070241    0.714660
H      -1.839223   -0.298148   -1.019481
H      -0.784566   -2.558139   -0.612756
H      -0.966596   -2.327820    1.120061
H      -3.453209   -2.201033    0.832826
H      -4.269318   -1.908212   -1.528758
H      -2.845372   -2.800949   -2.122175
H      -5.089285   -4.008281   -0.438785
H      -4.498575   -5.834408   -1.679354
H      -2.112240   -4.723088   -0.305808
H      -3.212258   -4.681520    1.099954
