23

C       0.404893    1.404364    0.297303
C      -0.063549   -0.017410   -0.050553
C      -1.597554   -0.105586   -0.081145
C       0.585002   -0.556780   -1.330179
C       0.239469    0.221691   -2.608363
C       0.851503   -0.283326   -3.831709
C       1.353100   -0.694839   -4.844144
C       1.964963   -1.150730   -1.196334
C       0.771537   -2.050699   -1.421867
H       1.497374    1.469205    0.312788
H       0.033912    2.142750   -0.422024
H       0.034035    1.702087    1.283515
H       0.281194   -0.677063    0.757263
H      -2.030682    0.585944   -0.812212
H      -1.931604   -1.116421   -0.335274
H      -2.018313    0.154499    0.895639
H      -0.849814    0.228336   -2.744714
H       0.533861    1.271855   -2.483230
H       1.792158   -1.052232   -5.742289
H       2.658663   -1.028295   -2.020450
H       2.425839   -1.143189   -0.213863
H       0.419356   -2.656294   -0.593052
H       0.679547   -2.520771   -2.394468
