21

C      -0.040152    1.527307    0.050370
C      -0.000253    0.007080    0.001605
C       0.659912   -0.524445   -1.278640
C       0.937650   -2.039839   -1.233055
O       2.324357   -2.339295   -1.536021
C       2.601603   -2.638874   -0.151288
C       1.099012   -2.647942    0.188117
C       0.577526   -1.826431    1.357978
O       0.723211   -0.435864    1.147327
H       0.976182    1.932398    0.025643
H      -0.592760    1.926037   -0.805691
H      -0.523716    1.868925    0.969343
H      -1.031865   -0.383566    0.069341
H       0.042999   -0.267785   -2.146643
H       1.624192   -0.021249   -1.405781
H       0.268966   -2.587549   -1.905463
H       3.147750   -3.581090   -0.034473
H       3.163396   -1.831027    0.337844
H       0.704275   -3.665933    0.240365
H      -0.484966   -2.067188    1.535342
H       1.126038   -2.062295    2.276696
