17

O       0.042940    0.002365   -0.060017
C      -0.005751    1.190694    0.033494
C      -1.112573    2.271685    0.042899
C      -0.813805    3.014793    1.351029
C      -0.110652    4.321983    1.049966
C      -0.166055    4.552230   -0.445509
C      -0.115455    3.086854   -0.871579
C       1.001965    2.363376   -0.021301
C       0.719802    3.081267    1.304477
H      -2.143987    2.065291   -0.233080
H      -1.362961    2.828263    2.263070
H      -0.123838    5.130449    1.769865
H      -1.088719    5.046360   -0.767887
H       0.689198    5.123448   -0.821875
H      -0.137176    2.845108   -1.932165
H       2.028755    2.246233   -0.359766
H       1.337228    2.945290    2.181108
