21

C      -0.351723    1.411290    0.208989
C       0.116925   -0.005141   -0.023134
C      -0.583765   -1.165775    0.668372
C       0.845362   -0.817097    1.005562
O       1.869789   -1.576726    0.421927
C       1.864168   -1.406293   -1.011924
C       1.624169   -2.773133   -1.650758
O       2.538861   -3.731478   -1.167004
C       0.793525   -0.341021   -1.351863
H       0.459925    2.129807    0.045457
H      -1.172214    1.675295   -0.468553
H      -0.716627    1.545502    1.232118
H      -1.347083   -0.915161    1.398824
H      -0.773487   -2.080325    0.116650
H       1.112910   -0.443301    1.988368
H       2.871313   -1.072610   -1.290221
H       0.580078   -3.083901   -1.474639
H       1.766952   -2.703036   -2.735384
H       2.526592   -3.635009   -0.206341
H       0.084647   -0.713072   -2.100833
H       1.259282    0.558336   -1.765641
