20

C       1.178275   -0.623817    1.118214
N       0.638753   -0.334797   -0.204647
C       1.213977   -1.191110   -1.237454
C      -0.802470   -0.173599   -0.228862
C      -1.273429    0.590030   -1.503890
C      -2.632272    1.103877   -1.399104
C      -3.750810    1.531472   -1.292843
C      -1.636740   -1.442564   -0.038948
O      -1.179976   -2.533601    0.193189
H       2.267831   -0.513748    1.090368
H       0.789800    0.102182    1.840587
H       0.944338   -1.635748    1.481838
H       0.989459   -2.258802   -1.103553
H       0.862550   -0.885153   -2.227034
H       2.301653   -1.063632   -1.228658
H      -1.072543    0.472301    0.620370
H      -0.567497    1.413761   -1.653908
H      -1.194556   -0.056504   -2.385780
H      -4.739322    1.910683   -1.210901
H      -2.735964   -1.284593   -0.122668
