19

C       0.207949    1.465818    0.138462
C       0.033710   -0.041547    0.296689
O       0.045738   -0.412243    1.686732
C      -1.233362   -0.562566   -0.400910
C      -1.368204   -2.053561   -0.390995
N      -1.831722   -2.793648   -1.378279
C      -1.790878   -4.089590   -0.916044
C      -1.294507   -4.132056    0.359872
N      -1.033941   -2.821399    0.687034
H       1.094570    1.805027    0.680591
H       0.317513    1.739599   -0.915197
H      -0.664421    2.002847    0.532040
H       0.906087   -0.555642   -0.121624
H      -0.625927    0.117387    2.132458
H      -2.105899   -0.091692    0.079190
H      -1.247663   -0.241243   -1.446196
H      -2.118388   -4.915356   -1.529360
H      -1.103497   -4.941572    1.044499
H      -0.611070   -2.446413    1.523200
