21

C      -0.045324    1.365770   -0.127631
O      -0.035496   -0.037814   -0.222708
C      -1.270925   -0.621859    0.144806
C      -1.139451   -2.113165    0.064739
C      -1.393213   -2.859116   -1.221362
C      -2.328500   -3.041628   -0.053288
C      -2.022182   -4.210975    0.865676
O      -0.613496   -4.175011    1.071181
C      -0.193464   -2.813745    1.029692
H       0.945043    1.721491   -0.421823
H      -0.797260    1.816397   -0.795469
H      -0.254935    1.706236    0.899294
H      -1.539625   -0.315001    1.171917
H      -2.077957   -0.269243   -0.520115
H      -1.754770   -2.279775   -2.063896
H      -0.728795   -3.677500   -1.480317
H      -3.343758   -2.664504   -0.105048
H      -2.570105   -4.099151    1.816190
H      -2.263053   -5.192376    0.443376
H       0.854371   -2.803200    0.716959
H      -0.263875   -2.341892    2.024837
