14

O      -0.031219   -0.072702    0.045749
C      -0.004945    1.137783    0.046732
N      -1.044325    2.056602    0.074669
N      -0.657150    3.389357    0.066326
C       0.633001    3.311657    0.033090
C       1.816214    4.238665    0.003981
C       2.963180    3.233301   -0.026517
C       2.492491    1.980036   -0.016168
N       1.089675    2.010727    0.019687
H      -2.020217    1.818944    0.099212
H       1.807648    4.893865   -0.875083
H       1.852543    4.891703    0.883940
H       4.005345    3.512770   -0.052796
H       3.008485    1.032472   -0.030624
