14

C      -0.015308    1.513050   -0.057905
C      -0.005837    0.024587    0.056164
N      -0.035751   -0.752442   -1.034903
N      -0.017629   -2.052704   -0.622422
C       0.023545   -2.117187    0.727146
C       0.032018   -0.823556    1.180534
O       0.074064   -0.875937    2.550876
C       0.087322   -2.221680    2.800671
N       0.058961   -3.016328    1.770612
H       0.881836    1.953438    0.390290
H      -0.053817    1.797298   -1.111076
H      -0.881347    1.946946    0.453282
H      -0.036217   -2.785291   -1.309438
H       0.120185   -2.504954    3.841402
