10

O      -0.160459    1.261238    0.010543
C       0.039155   -0.043159    0.002311
N       1.176867   -0.604306   -0.006691
C       1.228433   -2.018955   -0.014866
O       2.265652   -2.615553   -0.023554
N      -0.021637   -2.715348   -0.012192
C      -1.065060   -2.021450   -0.002950
F      -2.262899   -2.527738    0.000452
O      -1.172534   -0.669276    0.005063
H       0.714812    1.677188    0.008302
