18

O       0.176962   -0.157967   -0.511275
C       0.029701    1.019396   -0.314150
C       1.150098    1.996925    0.013138
C       1.305617    2.996794   -1.099618
C       0.957206    4.285362   -1.079045
C       1.278701    4.993402   -2.372142
C       1.602098    3.824625   -3.340514
C       1.923893    2.612951   -2.430404
H      -0.974053    1.498174   -0.386074
H       0.886466    2.511843    0.945476
H       2.066980    1.419075    0.170428
H       0.534464    4.796403   -0.219794
H       0.454642    5.619629   -2.732402
H       2.137208    5.667459   -2.239308
H       0.717246    3.599645   -3.944005
H       2.412671    4.060534   -4.034102
H       3.006581    2.462214   -2.310160
H       1.530943    1.669417   -2.826205
