21

C      -0.143305    1.511636    0.037151
C      -0.012910    0.014474   -0.031762
C       0.003575   -0.670569   -1.178161
C       0.109967   -2.176134   -1.244591
C       0.943453   -2.743511   -0.082010
C       0.545906   -2.131888    1.259276
C       1.401797   -1.047135    1.892341
C       0.060928   -0.714231    1.274276
O      -1.002396   -0.454874    2.163393
H       0.699623    1.960719    0.579152
H      -0.182111    1.957253   -0.960125
H      -1.057032    1.801483    0.570803
H      -0.073820   -0.132092   -2.120731
H      -0.899418   -2.613314   -1.230741
H       0.551770   -2.479155   -2.200445
H       0.840615   -3.832818   -0.040910
H       2.002383   -2.540924   -0.280787
H       0.034853   -2.784275    1.959336
H       1.462602   -1.022751    2.975594
H       2.303707   -0.743814    1.369377
H      -0.831151    0.391797    2.589437
