16

C      -0.918436    0.843832   -0.010840
C       0.185825   -0.207687    0.009803
C       1.020559   -0.248891   -1.258010
N       0.710536    0.380718   -2.304035
O       2.159357   -1.011085   -1.166312
C       2.338555   -1.697097    0.051752
O       2.230152   -0.838487    1.170262
C       1.105285   -0.064275    1.224217
O       0.910599    0.649731    2.161735
H      -0.491228    1.843144   -0.113007
H      -1.583817    0.671184   -0.857333
H      -1.486004    0.804802    0.920394
H      -0.267802   -1.208540    0.110874
H       1.397378    0.217975   -3.042347
H       1.618855   -2.522607    0.139046
H       3.356963   -2.083445    0.050217
