21

C      -0.149375    1.583731   -0.023119
C      -0.006842    0.059293   -0.028153
C       0.710182   -0.481742    1.212406
C       0.852105   -2.015593    1.212373
C       1.542074   -2.553730    2.431431
C       2.846511   -2.993340    2.549615
N       3.022387   -3.356793    3.844482
N       1.918221   -3.189640    4.594531
C       1.022188   -2.702158    3.741282
H       0.830462    2.072680    0.015132
H      -0.664636    1.940837   -0.920362
H      -0.721073    1.924783    0.847176
H      -1.000877   -0.402014   -0.102191
H       0.538638   -0.255078   -0.928226
H       1.708040   -0.030380    1.290472
H       0.168512   -0.171060    2.115530
H      -0.146653   -2.463106    1.125384
H       1.400790   -2.324890    0.314268
H       3.640287   -3.075772    1.823253
H       3.850992   -3.731232    4.273649
H       0.024146   -2.475318    4.089406
