18

C       0.070412    1.515634   -0.039788
C       0.016873    0.062437    0.009706
C      -0.028260   -1.140759    0.053724
C      -0.052138   -2.585690    0.063831
N      -0.109551   -3.300022    1.451874
C      -1.594012   -2.897979    1.473102
C      -1.382081   -3.376736    0.014955
O      -2.234888   -3.370986   -1.071512
C      -0.568128   -4.528423    0.654352
H       0.883180    1.861175   -0.687908
H      -0.865058    1.935661   -0.425438
H       0.238582    1.938168    0.956971
H       0.755028   -2.995976   -0.550787
H      -2.194834   -3.524117    2.137927
H      -1.757134   -1.834626    1.649833
H      -3.019273   -3.886654   -0.853675
H       0.226538   -4.993877    0.065655
H      -1.101868   -5.258428    1.267401
