17

C      -0.139904    1.517534    0.112448
C      -0.146704   -0.008635    0.214666
C       0.949399   -0.531840    1.166869
C       0.948412   -2.016153    1.276558
N       1.776679   -2.870335    0.746794
C       1.247951   -4.066706    1.164116
O       1.796947   -5.237290    0.842577
N       0.169552   -3.992160    1.900779
O      -0.031346   -2.596771    1.975502
H       0.820073    1.886534   -0.264670
H      -0.922157    1.867205   -0.567406
H      -0.314273    1.981625    1.089272
H      -1.121889   -0.358712    0.570117
H       0.003182   -0.452430   -0.776233
H       1.937779   -0.225970    0.814187
H       0.801067   -0.104220    2.164956
H       2.573811   -5.045588    0.303209
