14

O       0.617436   -0.308668   -0.331254
C       0.308399    0.784377    0.061499
C       1.229404    1.981722    0.021218
C       0.670307    3.232079   -0.736462
C       1.096574    4.103236    0.443589
O       1.262977    5.265327    0.621076
C       1.382095    2.840713    1.339319
C       0.390184    2.622960    2.377095
N      -0.421457    2.465080    3.185775
H      -0.705452    0.993867    0.468405
H       2.204922    1.665628   -0.348366
H       1.093231    3.473455   -1.713109
H      -0.423734    3.212294   -0.821471
H       2.384697    2.832323    1.775109
