16

C      -0.069615    1.438565    0.169561
N       0.263872    0.045186   -0.105880
C       0.714234   -0.749794    0.931420
C       0.650283   -2.095946    1.156864
C       1.397610   -2.324244    2.366199
N       1.525122   -3.566909    3.005140
C       1.849286   -1.110366    2.780062
O       1.420076   -0.128643    1.895751
H       0.810759    1.951265    0.561375
H      -0.356011    1.919396   -0.768621
H      -0.887256    1.561340    0.895786
H      -0.428258   -0.431877   -0.664802
H       0.133089   -2.831382    0.561112
H       1.663557   -4.324219    2.347809
H       2.275133   -3.580655    3.684367
H       2.415898   -0.763135    3.625437
