19

C       0.105154    1.316752    0.126277
O       0.028993   -0.090896   -0.020358
C       0.621605   -0.569671   -1.177187
O       2.028611   -0.353520   -1.157907
C       2.716266   -1.476412   -1.698785
C       1.741347   -2.629467   -1.616677
O       1.189850   -2.776802   -0.304918
C       0.423519   -2.075401   -1.294654
C      -0.920016   -2.632640   -1.661912
H       1.141539    1.649889    0.249213
H      -0.333396    1.831990   -0.742135
H      -0.467828    1.573816    1.019489
H       0.190006   -0.057009   -2.060138
H       3.005765   -1.300919   -2.746815
H       3.624382   -1.638965   -1.108460
H       1.891335   -3.539353   -2.191938
H      -1.658168   -2.353871   -0.903414
H      -1.258318   -2.236297   -2.625079
H      -0.879326   -3.722384   -1.723794
