19

C       0.093160    1.598088   -0.199606
C      -0.024960    0.103076    0.057181
C      -1.401949   -0.464492    0.537668
C      -0.664554   -1.326693    1.600335
C       0.658658   -0.571667    1.273410
O       1.760652   -1.353701    0.823145
C       1.555422   -1.708171   -0.530435
C       0.542310   -0.712400   -1.107489
O       0.252199   -0.596986   -2.269548
H       1.139726    1.903584   -0.305991
H      -0.428282    1.861550   -1.125182
H      -0.345601    2.171186    0.623146
H      -2.019438    0.322746    0.977652
H      -1.998385   -0.990239   -0.211459
H      -1.022820   -1.240166    2.627829
H      -0.603992   -2.387792    1.346089
H       1.025917    0.080742    2.068152
H       2.505061   -1.660778   -1.072911
H       1.157294   -2.729929   -0.641277
