19

C      -0.154262    1.576450   -0.154220
C      -0.156067    0.052356   -0.173139
C      -1.512371   -0.541200   -0.554191
C      -1.527298   -2.052545   -0.549250
C      -1.913800   -2.821444    0.642564
O      -2.811615   -2.669289   -0.457301
O       0.804493   -0.408282   -1.152432
C       2.023618   -0.781453   -0.723411
O       2.893849   -1.127796   -1.464199
H       0.832661    1.960510    0.119499
H      -0.413386    1.970287   -1.141275
H      -0.881916    1.950492    0.572267
H       0.145304   -0.333659    0.810912
H      -2.269731   -0.175702    0.147413
H      -1.790117   -0.175839   -1.550191
H      -0.857136   -2.528091   -1.264525
H      -1.521585   -3.826128    0.792814
H      -2.200230   -2.295625    1.553461
H       2.122739   -0.741076    0.379729
