21

C      -0.175851    1.502219   -0.003281
C       0.025173   -0.010071    0.030477
C       1.140509   -0.524353   -0.929647
C       2.127590   -0.564573    0.268799
C       0.900704   -0.534027    1.218018
N       0.969546    0.220135    2.442980
C       0.800531   -0.371905    3.675656
N       1.048695    0.484920    4.746208
O       0.492470   -1.538710    3.831887
H       0.777086    2.043949    0.041807
H      -0.675041    1.804526   -0.929717
H      -0.791662    1.839008    0.837105
H      -0.945191   -0.506413   -0.066160
H       0.924509   -1.522570   -1.318605
H       1.401964    0.126137   -1.768011
H       2.808233   -1.414674    0.354124
H       2.717052    0.355681    0.339929
H       0.599341   -1.542371    1.503891
H       1.426622    1.117439    2.412249
H       0.827269    1.461767    4.620064
H       0.709659    0.105057    5.617396
