18

C       0.681875    1.290819   -0.042698
N       0.822746   -0.094526   -0.444234
C      -0.139288   -0.751557   -1.143074
O      -1.206742   -0.261460   -1.469053
C       0.194269   -2.213544   -1.476003
C       1.582882   -2.438469   -2.112809
O       2.636209   -2.125237   -1.231699
C       1.705759   -3.885691   -2.548364
O       2.565859   -4.605888   -2.101784
H       1.437227    1.924791   -0.521160
H      -0.309454    1.624950   -0.350346
H       0.776053    1.398911    1.043492
H       1.692942   -0.580302   -0.279739
H       0.134081   -2.812578   -0.559102
H      -0.591325   -2.553295   -2.155386
H       1.658987   -1.814031   -3.018586
H       3.110461   -2.960428   -1.082564
H       0.958079   -4.247638   -3.281057
