18

C       0.144702    1.494993    0.036320
C       0.043698    0.008819   -0.010503
C      -0.147168   -0.842275   -1.086477
C      -0.159208   -2.145407   -0.524406
N       0.009607   -2.113280    0.792884
N       0.129732   -0.800168    1.077434
N      -0.287349   -0.388826   -2.421370
C       0.273455   -1.217917   -3.494913
C      -1.196761   -1.123811   -3.308585
H       1.109669    1.829534    0.434568
H       0.041519    1.880513   -0.979896
H      -0.642377    1.941664    0.654934
H      -0.282843   -3.098038   -1.019398
H       0.268700   -0.523407    2.034485
H       0.762291   -0.669972   -4.295819
H       0.761060   -2.147641   -3.212408
H      -1.711572   -1.989374   -2.899042
H      -1.796514   -0.506195   -3.971536
