22

C      -1.680367   -0.340591   -0.050201
C      -0.171570   -0.099121    0.106977
C       0.655012   -0.605402   -1.067798
C       0.618442    0.168948   -2.351140
N       1.843296    0.107796   -1.571189
C       2.325772    1.323648   -0.938229
C       0.885957   -2.091435   -1.178860
C       1.062462   -2.991604   -0.031392
O      -0.152714   -2.993443   -0.786699
H      -2.064885    0.168374   -0.940254
H      -1.896104   -1.405514   -0.148785
H      -2.223164    0.047228    0.817838
H       0.005784    0.973123    0.230084
H       0.181065   -0.567197    1.033665
H       0.629009   -0.337639   -3.314174
H       0.055148    1.102585   -2.338742
H       1.542135    2.049180   -0.670542
H       2.884788    1.069275   -0.032008
H       3.013289    1.821128   -1.630166
H       1.393253   -2.370079   -2.103097
H       1.682085   -3.880465   -0.142846
H       0.979033   -2.615209    0.986060
