16

N      -0.194041   -1.092135    0.826756
C      -0.107791   -0.055757    0.325473
C      -0.014060    1.263040   -0.315852
C       1.339555    1.811965   -0.301469
C       2.455468    2.261689   -0.288169
C       3.790874    2.817248   -0.281104
C       4.383503    3.365318   -1.611203
O       4.720834    4.618035   -0.989961
C       3.992716    4.281697    0.204084
H      -0.380763    1.168818   -1.346249
H      -0.710394    1.941335    0.194151
H       4.482868    2.130983    0.214314
H       5.263409    2.843815   -2.001699
H       3.640699    3.483248   -2.409795
H       3.058290    4.849036    0.295703
H       4.593622    4.414431    1.109613
