19

C      -0.016317    1.499701   -0.085066
C       0.045643   -0.000645   -0.022493
C       0.679150   -0.969391   -1.110495
C       0.147720   -1.866493    0.007800
O      -0.003211   -3.182549    0.453021
C      -0.686734   -2.901585    1.718819
C      -0.794699   -1.343111    1.736692
C       0.564700   -0.897804    1.146229
C      -1.117301   -1.004185    0.261575
H       0.986816    1.936759   -0.141524
H      -0.575904    1.837912   -0.964245
H      -0.510360    1.904730    0.804682
H       0.169860   -1.017287   -2.078120
H       1.764774   -0.916423   -1.239278
H      -1.663173   -3.398380    1.712586
H      -0.084050   -3.298511    2.543135
H      -1.280262   -0.896510    2.606191
H       1.550670   -0.873443    1.612394
H      -2.056468   -1.101593   -0.284791
