20

C       0.093124    1.396887   -0.271387
C       0.051301   -0.081314    0.142429
C       0.697305   -0.302407    1.517545
C      -1.382004   -0.587174    0.134626
C      -2.047454   -1.060806   -1.130868
C      -1.669379   -2.063560   -0.049637
O      -0.559114   -2.888108   -0.246331
C      -2.733497   -2.665272    0.726233
N      -3.583913   -3.163750    1.331939
H       1.125112    1.760298   -0.304424
H      -0.352099    1.549745   -1.259637
H      -0.455679    2.021344    0.443299
H       0.614640   -0.664685   -0.594059
H       0.151458    0.237609    2.300277
H       0.706294   -1.363828    1.779735
H       1.730382    0.059686    1.524429
H      -2.034335   -0.092083    0.850126
H      -3.097307   -0.849339   -1.297044
H      -1.435047   -1.112462   -2.025400
H      -0.817111   -3.613116   -0.827237
