19

C       0.509735    1.347999    0.130479
C      -0.031577   -0.038628   -0.001321
C       0.252723   -0.982470   -0.954139
N      -0.491243   -2.101541   -0.624708
C      -1.194741   -1.770183    0.498381
N      -0.940878   -0.548909    0.904775
C      -0.596600   -3.311858   -1.383403
C       0.631790   -4.160351   -1.586036
C      -0.470454   -4.632727   -0.672063
H       1.036551    1.477686    1.082199
H       1.207437    1.577700   -0.679647
H      -0.296796    2.088907    0.107645
H       0.901571   -0.975648   -1.814485
H      -1.871084   -2.469699    0.967042
H      -1.301420   -3.258604   -2.208867
H       0.757558   -4.642979   -2.548141
H       1.549852   -3.817801   -1.123536
H      -0.277889   -4.608088    0.393790
H      -1.111747   -5.442707   -0.999106
