17

C       0.189420    1.221815   -0.354517
N       0.012068   -0.056463    0.330407
C       0.560984   -0.080578    1.684163
C      -1.207643   -0.670973    0.160136
C      -1.624679   -1.794885   -0.482600
O      -0.875221   -2.669271   -1.178713
N      -2.986311   -1.966431   -0.343804
C      -3.356122   -0.949328    0.374238
O      -2.376411   -0.116176    0.728298
H       1.255344    1.471752   -0.383233
H      -0.173131    1.135426   -1.381279
H      -0.343770    2.052276    0.136717
H       0.062198    0.628776    2.364824
H       0.460994   -1.086850    2.097151
H       1.625361    0.174795    1.647248
H      -1.478624   -3.348826   -1.502728
H      -4.355742   -0.713790    0.707459
