21

C      -0.514742    1.394806    0.043288
C       0.052998   -0.006309   -0.047109
C       1.003680   -0.268382   -1.215784
C       1.816106   -1.469391   -0.716320
O       1.955274   -1.270589    0.690169
C       0.769853   -0.665202    1.182185
C       1.106507    0.115019    2.432517
C      -0.457445   -1.606925    1.207033
O      -0.998581   -1.013683    0.008521
H       0.284296    2.140774    0.103907
H      -1.119313    1.613878   -0.843010
H      -1.158795    1.500796    0.920827
H       0.457843   -0.471282   -2.140560
H       1.653096    0.599531   -1.371809
H       1.283857   -2.408074   -0.926901
H       2.820209   -1.538789   -1.141537
H       1.871827    0.867547    2.221942
H       0.222281    0.614440    2.837604
H       1.500120   -0.559092    3.200042
H      -0.226485   -2.671536    1.084559
H      -1.128518   -1.476857    2.065777
