23

C      -0.187056    1.568523    0.030737
C      -0.101035    0.038923    0.013303
C       0.746503   -0.511968   -1.141937
C       2.238574   -0.253017   -1.070684
C       2.960196   -1.279943   -1.532066
C       4.447683   -1.364635   -1.666048
C       2.045054   -2.402749   -1.985643
C       0.705280   -2.062703   -1.294559
O       0.591448   -2.728485   -0.042648
H       0.798895    2.030497    0.149317
H      -0.620173    1.952790   -0.899812
H      -0.813902    1.917647    0.857321
H       0.299132   -0.320518    0.967542
H      -1.110854   -0.382048   -0.062858
H       0.356214   -0.073445   -2.075860
H       2.661052    0.683544   -0.721106
H       4.940342   -0.461724   -1.294680
H       4.849054   -2.225484   -1.115950
H       4.742387   -1.505483   -2.714136
H       1.946848   -2.401207   -3.081083
H       2.389328   -3.403246   -1.699382
H      -0.165245   -2.394776   -1.866566
H       1.361207   -2.478953    0.482099
