10

F       0.057103    0.061940    0.002161
C      -0.057021    1.362983    0.011148
C      -1.237100    2.010997    0.030812
C      -1.216933    3.454172    0.039205
O      -2.165016    4.211018    0.054914
C       0.192321    3.966657    0.022218
F       0.328995    5.268560    0.026993
N       1.287533    3.301932    0.003659
O       1.154013    1.911597   -0.002106
H      -2.167572    1.461435    0.040048
