23

C      -0.497769    0.503942   -0.532937
O      -0.158180   -0.752743    0.002369
C       0.802248   -0.670826    1.032402
C       1.148262   -2.069732    1.524280
O       1.979236   -2.810109    0.657480
C       1.356590   -3.476117   -0.415572
C       1.361764   -2.835480   -1.830564
C       1.700540   -4.239415   -2.403933
C       2.168498   -4.660251   -0.983488
H       0.374385    1.009002   -0.976790
H      -1.245000    0.337916   -1.312745
H      -0.925422    1.170065    0.233455
H       1.718061   -0.171338    0.675868
H       0.407012   -0.080563    1.878601
H       1.701609   -1.971699    2.465516
H       0.214007   -2.613779    1.733274
H       0.340411   -3.783068   -0.131176
H       0.454055   -2.332713   -2.165334
H       2.209907   -2.150728   -1.923517
H       0.803993   -4.781514   -2.717665
H       2.435010   -4.291953   -3.209882
H       3.236584   -4.471088   -0.841969
H       1.934305   -5.665531   -0.625093
