15

C       0.080677   -1.155459    0.030978
C       0.014797    0.043561   -0.006238
C      -0.094633    1.478966   -0.034048
C      -0.999867    2.137051    1.012801
O      -1.052114    3.509222    0.615879
C      -0.599789    3.583273   -0.713596
C       0.785833    3.038938   -1.014330
O       1.196492    2.186040    0.054243
C      -0.444370    2.234749   -1.351113
H       0.148567   -2.215224    0.061384
H      -2.003942    1.688825    1.016160
H      -0.559798    2.069429    2.011020
H      -0.983572    4.433991   -1.263549
H       1.552607    3.505933   -1.621154
H      -0.875577    1.832258   -2.256547
