19

O       0.079685   -0.007295   -0.129201
C       0.052266    1.185938   -0.164220
O       1.073547    1.953683    0.257389
C       0.961652    3.372141    0.150876
C       1.371733    4.169993    1.412886
C       2.278157    5.079493    0.528671
C       3.774393    4.695827    0.553082
C       3.493739    3.562457   -0.480441
C       2.042137    4.091070   -0.677335
H      -0.804703    1.781284   -0.537464
H      -0.047623    3.631343   -0.190496
H       0.549337    4.663673    1.934608
H       1.928217    3.565111    2.133722
H       2.008837    6.135033    0.497346
H       4.412813    5.481639    0.140411
H       4.181851    4.397536    1.523686
H       4.109664    3.602683   -1.380503
H       3.537793    2.546682   -0.082948
H       1.771246    4.406594   -1.685647
