18

O       0.123228    1.279951   -0.219613
C       0.093381    0.000981    0.391795
C      -1.306687   -0.555789    0.421227
O      -1.820195   -0.938620   -0.875707
C      -1.629586   -1.949427    0.099250
C      -0.704635   -3.163686   -0.046365
C      -1.679536   -3.935427    0.893898
C      -2.747474   -2.820682    0.678069
H      -0.276733    1.174681   -1.090667
H       0.760362   -0.706656   -0.122359
H       0.467536    0.137604    1.412588
H      -2.019484    0.014815    1.019438
H      -0.722006   -3.548036   -1.070474
H       0.335001   -3.060258    0.272263
H      -1.957046   -4.945137    0.588251
H      -1.318612   -3.967765    1.924276
H      -3.280977   -2.444453    1.554055
H      -3.476429   -3.086384   -0.093228
