21

C      -0.023257    1.438354   -0.116059
O      -0.010530    0.052016    0.129520
C      -1.271461   -0.578746    0.035865
C      -1.711901   -0.806253   -1.419680
O      -0.887935   -1.763156   -2.061537
C      -0.875778   -2.973821   -1.352947
O      -0.381833   -2.839376   -0.050138
C      -1.175960   -1.949647    0.731922
C      -0.571989   -1.891480    2.124201
H       0.988922    1.805295    0.070206
H      -0.293633    1.685073   -1.153046
H      -0.720938    1.963422    0.555973
H      -2.039515    0.025831    0.549606
H      -2.765810   -1.136100   -1.423356
H      -1.646118    0.110753   -2.010271
H      -1.900582   -3.396705   -1.323633
H      -0.203310   -3.649437   -1.885026
H      -2.205154   -2.349053    0.787303
H       0.433421   -1.470850    2.077830
H      -1.184722   -1.264528    2.779522
H      -0.521589   -2.896947    2.549655
