23

C       0.859129    0.578199   -0.602448
O       0.301880   -0.668764   -0.254137
C      -1.092077   -0.661642    0.062536
C      -1.960947   -0.414309   -1.172256
C      -1.381636   -2.040837    0.681992
O      -0.858024   -3.072177   -0.140012
C      -0.929876   -2.218487    2.153063
C       0.576890   -2.186249    2.391930
O      -1.624163   -1.287956    2.984958
H       1.939178    0.434492   -0.687604
H       0.481240    0.956483   -1.561697
H       0.662926    1.337180    0.170445
H      -1.290895    0.118579    0.814003
H      -1.827007   -1.228549   -1.889629
H      -3.015743   -0.375659   -0.884080
H      -1.717772    0.532798   -1.661245
H      -2.470316   -2.168184    0.690951
H       0.001526   -2.754347   -0.444360
H      -1.301493   -3.206089    2.451589
H       1.001415   -1.205307    2.155890
H       0.791214   -2.421945    3.438579
H       1.081354   -2.924828    1.763285
H      -1.083092   -0.495526    3.056157
