17

C      -0.008993    1.407641    0.125059
N       0.077500   -0.031113    0.022203
C       0.576737   -0.582461   -1.008477
C       1.155973   -0.039537   -2.268224
C       1.544976   -1.062412   -3.034998
C       1.244844   -2.345604   -2.325609
O       1.450576   -3.480011   -2.697528
N       0.665413   -1.972144   -1.118717
C       0.216917   -2.906795   -0.109758
H       0.530623    1.734267    1.021864
H       0.380959    1.971037   -0.733276
H      -1.057427    1.692237    0.272986
H       1.232478    1.013945   -2.489979
H       2.005577   -1.043089   -4.012154
H       0.422576   -3.909849   -0.486156
H       0.748774   -2.746107    0.832251
H      -0.854415   -2.791728    0.077439
