17

O       0.005402    1.373507   -0.107296
C       0.002618   -0.021876   -0.015409
C       0.033586   -0.636619    1.462755
C      -1.469265   -0.189741    1.531686
C      -1.447124   -0.617347    0.027464
C      -1.083897   -2.093329    0.155383
C      -1.611013   -3.216400   -0.602436
O      -2.444133   -3.131289   -1.480054
C      -0.115695   -2.095921    1.098217
H       0.917773    1.677323   -0.138705
H       0.694561   -0.484509   -0.730679
H       0.775938   -0.340984    2.203357
H      -2.124412   -0.748608    2.203396
H      -1.578930    0.886555    1.667512
H      -2.210097   -0.331435   -0.692254
H      -1.181257   -4.201426   -0.309683
H       0.462936   -2.930208    1.473316
