21

C      -0.147147    1.500417   -0.081045
C       0.037694   -0.023703   -0.026573
C       0.769118   -0.509847   -1.287428
C       0.780885   -0.489610    1.260107
C       0.170404    0.097413    2.557105
C       0.814980   -0.413748    3.761595
C       1.366673   -0.854243    4.734242
C       0.726712   -2.007086    1.333067
O       1.610873   -2.752299    1.002044
H       0.818059    2.015603   -0.011089
H      -0.605894    1.787165   -1.032560
H      -0.791900    1.877107    0.717369
H      -0.963141   -0.481780   -0.011431
H       1.753425   -0.034699   -1.369312
H       0.926397   -1.590909   -1.285458
H       0.197621   -0.248924   -2.183588
H       1.835533   -0.201846    1.189380
H       0.249502    1.188439    2.538431
H      -0.904004   -0.131575    2.589330
H       1.848846   -1.239983    5.598114
H      -0.250914   -2.404617    1.699004
