21

C      -0.006451    1.599938   -0.099034
C       0.049734    0.084985    0.128222
C      -1.319521   -0.574888    0.064100
C      -2.025099   -0.797342   -1.304079
O      -1.039224   -1.527013   -2.052029
C      -1.034545   -2.709145   -1.233690
C      -2.462674   -3.255853   -1.450191
C      -2.841762   -1.996103   -0.659081
C      -1.503143   -2.099412    0.159254
H       0.989196    2.049433   -0.034070
H      -0.411821    1.836855   -1.088596
H      -0.642741    2.091572    0.645880
H       0.700788   -0.377198   -0.620724
H       0.498802   -0.123400    1.108333
H      -2.021734   -0.099092    0.760707
H      -2.465273   -0.004402   -1.906748
H      -0.124772   -3.287492   -1.384188
H      -2.793282   -3.377781   -2.484696
H      -2.662531   -4.158096   -0.865471
H      -3.815709   -1.795336   -0.217301
H      -1.380693   -2.693019    1.063792
