18

C      -0.013053    1.224242    0.275165
O      -0.061531   -0.180045    0.014031
C      -1.315274   -0.693766   -0.067554
O      -2.333113   -0.056566    0.082905
N      -1.261400   -2.019116   -0.394208
C      -0.189676   -3.008128   -0.139740
C      -1.279061   -4.053556    0.143635
C      -2.203415   -3.564886    1.233814
C      -2.322830   -2.980944   -0.143948
H       1.046033    1.478735    0.329492
H      -0.497661    1.786142   -0.527739
H      -0.511242    1.463861    1.218207
H       0.401060   -3.210693   -1.038070
H       0.480655   -2.753221    0.687061
H      -1.255285   -5.080061   -0.192753
H      -2.990642   -4.259401    1.509765
H      -1.826560   -2.956295    2.051672
H      -3.219681   -2.997115   -0.748935
