20

C      -0.064533    1.537900    0.070612
C      -0.042403    0.028171    0.226182
O      -1.286846   -0.486846   -0.252600
C      -1.412165   -1.849157   -0.124592
C      -0.973862   -2.871829   -1.182906
N      -2.127824   -3.764998   -0.803596
C      -2.667555   -2.697307    0.075246
C      -1.672418   -2.557400    1.191812
O      -0.946546   -3.649949    1.655056
H       0.875554    1.969891    0.426457
H      -0.198719    1.815304   -0.978815
H      -0.886754    1.971631    0.646950
H       0.789406   -0.409143   -0.346224
H       0.096710   -0.260429    1.277740
H      -1.074300   -2.462235   -2.192047
H       0.006954   -3.344080   -1.066518
H      -2.732762   -3.936236   -1.598623
H      -3.724400   -2.465523    0.132997
H      -1.973706   -1.880487    1.987033
H      -1.165296   -4.371928    1.044541
