13

N       0.028323    1.040672    0.152425
H      -0.042190    0.030382    0.162002
H       0.678929    1.327761   -0.570008
C      -1.224658    1.634154    0.053203
N      -1.378830    2.986744    0.047095
C      -2.727887    3.315210    0.025161
C      -3.441816    2.154229    0.020292
C      -2.496906    1.070726    0.030066
C      -2.742248   -0.317737   -0.000181
N      -2.903877   -1.466916   -0.026471
H      -0.621740    3.640625    0.149584
H      -3.043357    4.344733    0.008055
H      -4.514812    2.055723   -0.004268
