22

O      -0.432074    1.270745   -0.111767
C      -0.072820   -0.107321   -0.042874
C       0.702998   -0.538971   -1.285724
C       0.365435    0.011154   -2.616388
N       1.634913    0.382960   -1.954558
C       0.672706   -0.461644    1.243427
C       1.972722    0.300628    1.643230
C       1.505252    0.226693    3.122012
C       0.065727   -0.060592    2.616473
H       0.266824    1.784879    0.305221
H      -1.028407   -0.650837   -0.038021
H       1.071715   -1.562281   -1.232540
H       0.474156   -0.603287   -3.505389
H      -0.419146    0.760551   -2.658123
H       1.506480    1.311750   -1.557187
H       0.879111   -1.537488    1.227233
H       2.928927   -0.151132    1.372621
H       1.983522    1.337621    1.284762
H       1.934754   -0.638610    3.634585
H       1.658166    1.109702    3.746589
H      -0.524520    0.856358    2.527601
H      -0.528438   -0.807767    3.147927
