14

N       0.145181    1.358968   -0.136306
C      -0.049770   -0.015283   -0.048648
C      -1.158969   -0.805227   -0.040983
C      -0.674889   -2.166253   -0.061647
N      -1.461115   -3.330207   -0.134907
C       0.677608   -2.085129   -0.067992
O       1.642534   -3.028671    0.013986
O       1.081506   -0.758228   -0.064917
H       0.935611    1.672568    0.414674
H      -0.684962    1.877099    0.117475
H      -2.187443   -0.480572   -0.040058
H      -2.239179   -3.302060    0.514135
H      -0.905269   -4.153580    0.066618
H       2.082101   -3.123112   -0.841162
