18

C       0.028844    1.599411    0.060987
C      -0.001648    0.076137    0.008174
C       0.696366   -0.484886   -1.228907
C       0.672598   -2.024908   -1.275438
C       1.300311   -2.548911   -2.485440
N       1.796681   -2.944515   -3.450878
O       0.684306   -0.460588    1.161220
C      -0.046314   -0.755768    2.254825
O       0.440746   -1.154408    3.268466
H       1.061436    1.959009    0.088368
H      -0.465760    2.022820   -0.818234
H      -0.485585    1.967280    0.953270
H      -1.042924   -0.277295    0.030770
H       0.205997   -0.080011   -2.119654
H       1.733829   -0.135785   -1.245052
H       1.191189   -2.430393   -0.401257
H      -0.359635   -2.393704   -1.234375
H      -1.132568   -0.599260    2.101855
