15

O      -0.051711    1.339555    0.028172
C       0.045552   -0.045856   -0.031906
C       1.046601   -0.708759   -0.964746
C       0.409948   -2.077954   -1.275432
O       0.763149   -2.874171   -2.100409
C      -0.761682   -2.212847   -0.292671
O      -0.105546   -2.221616    1.023473
C      -0.423550   -0.836605    1.177348
C      -1.283327   -0.786253   -0.057551
H       0.689538    1.673572    0.545707
H       1.138788   -0.127936   -1.888115
H       2.049425   -0.845582   -0.547623
H      -1.429476   -3.060197   -0.436982
H      -0.537210   -0.433517    2.177159
H      -2.248209   -0.350680   -0.271973
