21

C       0.018627    1.477322    0.075751
C      -0.020565   -0.028693   -0.047572
C       0.618681   -0.642274   -1.312925
C       0.097692   -2.116907   -1.282273
O       1.096530   -3.112779   -1.384589
C      -0.740769   -2.145557    0.027226
C       0.210264   -1.960738    1.214456
O       0.669859   -0.604333    1.088218
C      -1.384302   -0.747034   -0.005290
H       1.052394    1.836180    0.085242
H      -0.499349    1.946324   -0.766304
H      -0.460461    1.798610    1.005088
H       0.315442   -0.118165   -2.224502
H       1.710648   -0.603990   -1.252134
H      -0.567015   -2.306967   -2.130427
H       1.825393   -2.871519   -0.803831
H      -1.401590   -3.008741    0.112522
H      -0.301700   -2.091538    2.177191
H       1.062182   -2.652054    1.195838
H      -1.961787   -0.503318    0.890725
H      -1.995728   -0.566292   -0.894042
