23

C      -0.016744    1.542588    0.027386
C       0.095280    0.032115    0.056653
O      -1.083473   -0.588258   -0.416620
C       1.357599   -0.763055   -0.239788
C       1.426198   -1.806712   -1.318424
C       2.584972   -0.041676    0.332200
C       1.926655   -0.053412    1.747460
C       0.704051   -0.781691    1.173025
C      -0.051213   -1.848849    1.914762
H       0.864337    2.043057    0.432766
H      -0.148574    1.897699   -1.003082
H      -0.890016    1.863890    0.604254
H      -1.177572   -0.363632   -1.348972
H       1.767503   -1.372396   -2.267828
H       2.131813   -2.603999   -1.057419
H       0.448542   -2.264820   -1.488117
H       3.481902   -0.666118    0.294794
H       2.834323    0.932809   -0.101679
H       2.480399   -0.680076    2.451435
H       1.743994    0.914087    2.226942
H      -0.542136   -1.430066    2.802662
H      -0.824192   -2.296151    1.287563
H       0.622705   -2.642251    2.258636
