20

C      -0.161145    1.518396    0.084877
N      -0.104245    0.066113    0.039637
C       0.505576   -0.554883   -0.879056
O       0.590266   -1.902127   -0.929894
C      -0.029242   -2.672558    0.129155
C      -1.520586   -2.833747   -0.150331
C       0.721695   -3.995625    0.175939
C       1.249318    0.004600   -2.069673
O       1.372550    1.180613   -2.298365
H       0.834025    1.971821    0.151166
H      -0.641216    1.942122   -0.804224
H      -0.737866    1.810789    0.966234
H       0.107834   -2.115234    1.060891
H      -1.985123   -3.433372    0.638744
H      -2.013269   -1.860124   -0.176147
H      -1.679075   -3.341723   -1.107045
H       1.786279   -3.832562    0.363948
H       0.321729   -4.625708    0.975766
H       0.617414   -4.534605   -0.771016
H       1.679262   -0.778455   -2.727872
