18

O       0.001923   -0.071738    0.047432
C      -0.037813    1.136958    0.091627
C      -1.273329    2.028349    0.227945
C      -0.742021    3.453651    0.434405
O      -0.794008    3.866627    1.799571
C       0.509997    3.828469    2.371273
C       1.458986    4.128515    1.209676
C       0.770036    3.400562    0.044992
N       1.043968    1.977222    0.006407
H      -1.865855    1.937703   -0.688174
H      -1.899513    1.706691    1.061894
H      -1.296372    4.192820   -0.150374
H       0.546685    4.570284    3.173358
H       0.720505    2.839570    2.804865
H       1.485781    5.203642    1.005728
H       2.481976    3.783011    1.379929
H       0.974465    3.875503   -0.921085
H       1.962668    1.597908   -0.162358
