18

C      -0.085394    1.554505    0.082813
C       0.006631    0.059848   -0.010639
C      -0.784181   -0.900298    0.865317
C       0.709243   -0.976541    0.839485
O       1.162254   -1.726436   -0.293659
C       0.605831   -0.714468   -1.191005
C      -0.255954   -1.346251   -2.268905
O       0.488439   -2.311247   -2.990178
H       0.834039    2.033630   -0.271905
H      -0.917576    1.943132   -0.516315
H      -0.251439    1.874456    1.116339
H      -1.209847   -0.432023    1.748364
H      -1.372468   -1.715465    0.454757
H       1.370457   -0.906443    1.695701
H       1.435300   -0.163576   -1.653776
H      -1.161097   -1.785951   -1.824673
H      -0.573462   -0.582732   -2.988154
H       0.864219   -2.904973   -2.328717
