21

C       0.122294    1.321093    0.452911
C      -0.044583   -0.048257   -0.218875
C      -1.447717   -0.633617   -0.084941
C      -2.512156    0.137138   -0.856280
C      -1.721419   -2.099131    0.023940
C      -0.625012   -2.861454    0.780974
C      -0.911452   -1.931314    1.991388
O      -0.545777   -1.943177    3.133400
C      -1.973872   -1.174126    1.253661
H       1.152146    1.676113    0.351096
H      -0.530875    2.078883    0.009792
H      -0.107660    1.261344    1.521545
H       0.191580    0.034154   -1.288341
H       0.697186   -0.732751    0.201572
H      -2.259665    0.169219   -1.922115
H      -3.495482   -0.331883   -0.756739
H      -2.599167    1.168587   -0.502366
H      -2.486698   -2.578734   -0.573919
H      -0.924305   -3.882064    1.039852
H       0.383017   -2.887212    0.360007
H      -2.895127   -0.792995    1.678746
