19

C      -0.057030    1.502693    0.016727
C       0.031281    0.018067   -0.047688
C       0.042577   -0.816594   -1.084000
C       0.032589   -2.232915   -0.464390
O       0.832084   -2.002796    0.704678
C       0.031278   -0.916630    1.209913
C       0.569844   -0.369925    2.510290
C      -1.361440   -1.610847    1.232899
C      -1.357450   -2.439117    0.194871
H       0.776512    1.936084    0.583195
H      -0.055829    1.947607   -0.982035
H      -0.977329    1.820784    0.526174
H      -0.014283   -0.592748   -2.140180
H       0.428440   -3.049808   -1.066032
H       1.588220    0.006919    2.379336
H      -0.057535    0.449387    2.874891
H       0.588432   -1.153552    3.272528
H      -2.149041   -1.390897    1.940098
H      -2.143059   -3.076805   -0.184685
