17

O      -0.102483    1.438210    0.278737
C       0.010699    0.058710   -0.036664
C      -1.381764   -0.539198    0.022522
C      -1.478816   -2.081677   -0.114115
C      -2.074872   -2.074191    1.309523
O      -2.491106   -2.895077    2.069725
N      -1.947181   -0.676445    1.380693
C      -2.290282    0.303048    2.302855
N      -2.809623    0.024992    3.427287
H       0.780659    1.809122    0.363847
H       0.418711   -0.091248   -1.048949
H       0.663061   -0.468675    0.675707
H      -2.045568    0.015491   -0.649154
H      -2.159365   -2.447505   -0.884181
H      -0.523738   -2.606429   -0.192347
H      -2.042959    1.299913    1.925064
H      -2.984474    0.884811    3.945536
