22

C       0.189002    1.530178   -0.036298
C      -0.048200    0.029880   -0.015394
O       0.605304   -0.524606   -1.154729
C       0.688019   -1.936851   -1.245255
C      -0.697837   -2.604207   -1.324184
C       1.501421   -2.228685   -2.524810
C       2.897553   -1.605114   -2.540378
C       1.415974   -2.480771   -0.065156
N       1.974597   -2.902562    0.854807
H       1.258136    1.751384    0.021829
H      -0.204468    1.969900   -0.957200
H      -0.311399    2.001932    0.814484
H       0.356688   -0.413700    0.905095
H      -1.125186   -0.187168   -0.046665
H      -1.255088   -2.161873   -2.154570
H      -0.592318   -3.677924   -1.499132
H      -1.268556   -2.469468   -0.403057
H       1.565160   -3.315315   -2.645385
H       0.905123   -1.844069   -3.359610
H       2.837941   -0.520929   -2.424838
H       3.518105   -2.001430   -1.730744
H       3.399538   -1.825045   -3.486824
