16

O       0.344984    1.174177   -0.560369
C       0.055495   -0.093941   -0.029836
C       0.161911   -0.333814    1.512606
C      -1.300528   -0.824261    1.526548
O      -2.215760    0.266508    1.779580
C      -2.470994    0.462792    0.367810
C      -1.424027   -0.600186   -0.009034
O      -1.782394   -1.614477   -0.894283
H      -0.025019    1.840655    0.028203
H       0.668445   -0.804537   -0.593079
H       0.909891   -1.080396    1.789909
H       0.315023    0.566785    2.113028
H      -1.568608   -1.742642    2.051644
H      -3.488706    0.161307    0.091553
H      -2.297212    1.497409    0.044938
H      -1.514327   -1.351290   -1.782010
