22

C      -0.027542    1.541033    0.023387
C      -0.009399   -0.003609    0.009123
C       0.737441   -0.511299    1.262483
C      -1.458858   -0.518851    0.050573
C       0.702091   -0.491701   -1.238596
C       0.188907   -1.287672   -2.240891
N       1.170300   -1.489257   -3.180514
C       2.312962   -0.834942   -2.801594
C       2.056281   -0.209199   -1.606159
H       0.987208    1.950087    0.002023
H      -0.562624    1.933051   -0.847305
H      -0.522317    1.915975    0.926856
H       0.249560   -0.154832    2.177108
H       0.756291   -1.605390    1.289049
H       1.773867   -0.160399    1.276241
H      -2.031500   -0.167144   -0.814040
H      -1.492430   -1.613371    0.059107
H      -1.965114   -0.162275    0.953730
H      -0.787351   -1.726133   -2.364878
H       1.063941   -2.034197   -4.017360
H       3.203181   -0.869855   -3.408983
H       2.761975    0.389275   -1.049992
