21

C      -0.023955    1.492772    0.028155
C      -0.036797    0.041330   -0.089872
C      -0.036850   -1.158283   -0.195311
C      -0.069070   -2.612046   -0.305168
C      -1.323293   -3.230793    0.352585
C      -1.392475   -4.738014    0.180196
C      -0.365357   -5.567998    0.921238
C      -2.671738   -5.356162   -0.201671
O      -1.641247   -5.160830   -1.173009
H       0.864270    1.842525    0.566213
H      -0.023803    1.973643   -0.956481
H      -0.902900    1.856741    0.572070
H      -0.051651   -2.911480   -1.360372
H       0.837812   -3.031905    0.148126
H      -1.339207   -2.980038    1.419595
H      -2.210448   -2.776129   -0.097690
H      -0.456208   -5.421737    2.003019
H      -0.500949   -6.629307    0.700029
H       0.653279   -5.292375    0.630465
H      -2.870902   -6.393945    0.064836
H      -3.558061   -4.735026   -0.327121
