24

C       0.105369    1.571087    0.053471
C       0.005624    0.042577    0.003899
C      -1.428229   -0.513529   -0.018879
C      -2.201658   -0.120213   -1.290548
C      -3.621407   -0.706773   -1.312403
C      -3.606103   -2.231528   -1.142094
C      -2.844658   -2.637032    0.126781
C      -1.428253   -2.044439    0.144227
H       1.148820    1.892771    0.130975
H      -0.314458    2.039884   -0.841746
H      -0.430597    1.973893    0.920610
H       0.547269   -0.331800   -0.876139
H       0.525756   -0.374708    0.876178
H      -1.966252   -0.087585    0.843601
H      -2.252365    0.969692   -1.386240
H      -1.645359   -0.483127   -2.167863
H      -4.208316   -0.259016   -0.498004
H      -4.127884   -0.432054   -2.244912
H      -4.629437   -2.623111   -1.114557
H      -3.120891   -2.688085   -2.016281
H      -3.396009   -2.280293    1.008145
H      -2.797887   -3.728869    0.212196
H      -0.840318   -2.487796   -0.673260
H      -0.915329   -2.318069    1.074494
