18

C       0.273092    1.422351    0.090535
C      -0.155427   -0.026618   -0.000417
O      -0.592972   -0.634051    0.957800
C      -0.013839   -0.703123   -1.323582
N      -0.740507   -1.992776   -1.497079
C       0.709839   -2.032923   -1.381504
C       1.458037   -2.091597   -2.709353
C       1.073519   -0.791238   -3.385956
C       0.296588   -0.024554   -2.617783
H       1.266422    1.563980   -0.347476
H      -0.418827    2.051061   -0.482690
H       0.266969    1.742239    1.132871
H      -1.128681   -2.211794   -0.576577
H       1.148599   -2.445787   -0.479059
H       2.542202   -2.169029   -2.558595
H       1.151907   -2.964038   -3.298974
H       1.380520   -0.552275   -4.397901
H      -0.109042    0.940388   -2.896506
