21

C      -0.068104    1.527893    0.017747
C       0.010534   -0.005531   -0.051886
C      -1.420260   -0.565523   -0.092616
C       0.957827   -0.559368   -1.153333
C       1.228511   -2.020698   -0.680978
C       1.973429   -1.302326    0.492876
C       2.376287   -0.244063   -0.587258
C       0.806709   -0.583405    1.154206
O       0.541697   -0.473653    2.322499
H       0.913471    2.007803    0.013841
H      -0.636967    1.919527   -0.832716
H      -0.579557    1.830469    0.936453
H      -1.970103   -0.145383   -0.941984
H      -1.451880   -1.654306   -0.178480
H      -1.950762   -0.291429    0.824225
H       0.694396   -0.334632   -2.187476
H       0.387695   -2.673982   -0.441412
H       1.929954   -2.544696   -1.333910
H       2.687612   -1.798217    1.146977
H       3.173527   -0.619781   -1.232362
H       2.612548    0.769865   -0.259728
