20

C      -0.189288    1.542400   -0.120782
C       0.089109    0.063156    0.048108
O       1.161555   -0.450090   -0.801047
C       1.767218   -1.156484    0.301843
C       1.954609   -2.630602    0.055338
C       2.931604   -0.417522    1.029539
N       2.652650    1.030132    0.992122
C       1.954638    0.186257    1.989584
C       0.767756   -0.533343    1.308384
H       0.704212    2.132777    0.075267
H      -0.531019    1.739425   -1.142511
H      -0.989565    1.848056    0.563188
H      -0.828077   -0.504968   -0.169716
H       2.659205   -2.786329   -0.769714
H       2.356295   -3.128320    0.944436
H       1.006161   -3.104162   -0.213629
H       3.941528   -0.782051    1.181972
H       3.420731    1.488739    1.482064
H       2.057033    0.389030    3.048673
H       0.164186   -1.149600    1.974326
