18

C      -0.326813    1.448308    0.069606
N      -0.040040    0.011896   -0.020325
C       0.046460   -0.644301    1.233194
C       0.254701   -2.138689    1.292801
N      -0.078389    0.104201    2.261715
C       0.190863   -0.616972   -1.244219
C       0.076715    0.232617   -2.503987
O       0.474513   -1.794728   -1.340867
H       0.499185    1.974020    0.555735
H      -0.491000    1.862429   -0.919675
H      -1.214428    1.605622    0.684041
H       1.216143   -2.429100    0.867329
H       0.210104   -2.445899    2.341037
H      -0.502822   -2.677821    0.721853
H      -0.017041   -0.458111    3.107939
H       0.785375    1.065895   -2.506853
H       0.298687   -0.427082   -3.341919
H      -0.928289    0.645661   -2.632649
