20

C      -0.007927    1.430350    0.078271
C      -0.039501   -0.052608   -0.053302
N      -0.071677   -0.725815   -1.136408
C      -0.054585   -2.125545   -0.758473
C      -0.814996   -3.070694   -1.649364
C       1.200088   -2.554838   -0.011258
C      -0.017176   -2.127126    0.765866
C      -0.754042   -2.996829    1.739927
O      -0.032212   -0.745240    1.124298
H       0.937109    1.756296    0.525021
H      -0.115988    1.885385   -0.905883
H      -0.813459    1.771478    0.735877
H      -0.366668   -3.093602   -2.647826
H      -0.801860   -4.088836   -1.249279
H      -1.857661   -2.755145   -1.756637
H       1.419160   -3.617866   -0.000081
H       2.068439   -1.904457   -0.038425
H      -0.773105   -4.030491    1.384442
H      -0.267062   -2.988110    2.720929
H      -1.786296   -2.655865    1.867047
