19

C      -1.014393    1.113175    0.208248
C      -0.051208   -0.049745    0.025640
C       1.132576    0.070735   -0.983303
C       2.079871   -0.661319    0.023998
C       0.966209   -0.416822    1.135632
C       1.824336    0.767687    1.714023
O       2.071485    0.803136    3.091674
C       2.984728    0.202398    0.875953
O       4.156892    0.168015    1.142834
H      -0.493501    2.048292    0.437838
H      -1.596923    1.279011   -0.704750
H      -1.720206    0.916604    1.022477
H      -0.623034   -0.952499   -0.216775
H       1.003383   -0.439145   -1.939531
H       1.433341    1.102524   -1.187665
H       2.459484   -1.637251   -0.277309
H       0.719370   -1.164026    1.889081
H       1.459695    1.743972    1.371017
H       3.013729    0.620935    3.206729
