16

O      -0.159368    0.049816   -0.453446
C      -0.031308    1.189476   -0.076785
C       1.249965    1.913232    0.021810
C       1.252962    3.447400   -0.097379
C       1.502112    2.829662    1.216356
C       0.759778    2.922094    2.547307
C       2.180364    2.859395    3.149924
O       2.780805    2.844229    1.829022
H      -0.918031    1.790930    0.240158
H       2.120005    1.381717   -0.348211
H       2.094908    3.886896   -0.619998
H       0.296185    3.932983   -0.268233
H       0.231570    3.863650    2.708757
H       0.102402    2.087473    2.793104
H       2.501849    3.732939    3.725464
H       2.414608    1.946538    3.707616
