22

C      -0.013988    1.404998   -0.189644
N       0.051945   -0.003772    0.115841
C      -1.183319   -0.741942    0.417935
C      -0.409804   -1.572061    1.472374
O       0.095261   -2.821849    1.056639
C       1.312075   -2.610606    0.333664
C       1.962251   -1.375735    0.971414
C       0.740202   -0.523778    1.337258
C       0.937947    0.452687    2.487702
H       0.994948    1.814793   -0.307202
H      -0.536278    1.543537   -1.143050
H      -0.543081    2.011045    0.569287
H      -1.973104   -0.123526    0.877418
H      -1.612256   -1.296449   -0.424540
H      -0.898014   -1.703214    2.440129
H       1.908699   -3.522477    0.420859
H       1.101899   -2.425117   -0.727826
H       2.516311   -1.653068    1.875221
H       2.640017   -0.857220    0.288092
H       1.675897    1.223134    2.238974
H       0.004147    0.958019    2.753720
H       1.297850   -0.077586    3.375201
