16

C       0.036307    1.549826    0.008605
C       0.031460    0.094862    0.022454
C       0.020960   -1.109097    0.039637
C      -0.010081   -2.552665    0.049661
C       0.302724   -3.326930    1.349429
N      -0.732094   -2.955837    2.310039
C      -1.009385   -4.058484    1.319900
C      -1.388245   -3.339274    0.047665
O      -2.268529   -3.437087   -0.748699
H       1.054971    1.946914   -0.064669
H      -0.532049    1.937710   -0.844019
H      -0.415199    1.956462    0.920166
H       0.564622   -2.972750   -0.786905
H       1.268931   -3.708046    1.652341
H      -0.527886   -3.424387    3.193279
H      -1.283383   -5.049660    1.656838
