15

C       0.005787    1.404226    0.066062
O       1.304019    1.934200   -0.069937
C       2.008694    0.916609   -0.783485
C       3.469211    0.612217   -0.472068
C       3.433865   -0.957765   -0.497658
N       2.074739   -1.355489   -0.048639
C       1.370933   -0.320077   -0.218114
O       0.122022   -0.036490    0.191401
H      -0.453677    1.798339    0.974626
H      -0.618132    1.615580   -0.815369
H       1.826605    1.020651   -1.865804
H       4.183896    1.046489   -1.173585
H       3.704207    0.961847    0.537678
H       3.633234   -1.346417   -1.504880
H       4.179514   -1.398678    0.169197
