19

C      -0.256879    1.575039    0.281919
C      -0.009313    0.106066   -0.005600
C       1.400558   -0.325882   -0.384488
C       0.825651   -0.680457    0.967623
O       1.252693   -0.006799    2.114635
C      -1.196167   -0.573233   -0.697176
N      -1.443795    0.051372   -2.001393
C      -1.029585   -2.040547   -0.806426
N      -0.912113   -3.182397   -0.949704
H       0.596205    2.010352    0.803039
H      -0.438118    2.123257   -0.645085
H      -1.135153    1.700220    0.925756
H       1.541323   -1.130001   -1.099773
H       2.152229    0.455408   -0.416356
H       0.562081   -1.725284    1.126172
H       2.127301   -0.338563    2.342467
H      -2.088034   -0.402203   -0.080074
H      -0.645736   -0.110791   -2.609684
H      -2.247386   -0.378439   -2.449542
