23

C      -0.282443    1.478711   -0.141051
C       0.037539   -0.009888   -0.020169
O      -1.169266   -0.765886    0.131169
C       0.886344   -0.562140   -1.176356
O       1.484700   -1.748336   -0.701603
C       1.629281   -1.698514    0.740467
C       0.945606   -2.947897    1.302823
C       3.123957   -1.688123    1.072120
C       0.922132   -0.388165    1.175887
H       0.627547    2.083456   -0.201788
H      -0.876147    1.675911   -1.042108
H      -0.865952    1.810240    0.722247
H      -1.668094   -0.699617   -0.690051
H       0.282415   -0.802490   -2.060536
H       1.643768    0.180807   -1.479801
H       1.377513   -3.845622    0.850192
H       1.079946   -3.011662    2.388057
H      -0.122497   -2.919585    1.079411
H       3.618568   -0.830864    0.604568
H       3.283337   -1.627963    2.154233
H       3.602961   -2.600492    0.704773
H       1.654511    0.403825    1.359214
H       0.321632   -0.515240    2.078761
