14

O      -0.005070    1.426282    0.007293
C      -0.004323    0.012364    0.002178
C      -1.427993   -0.484575    0.012832
C      -2.525754    0.373229    0.024006
N      -3.782797   -0.090265    0.033160
C      -3.913496   -1.393104    0.030952
F      -5.148083   -1.882550    0.040005
C      -2.833404   -2.277729    0.019929
N      -1.590580   -1.814698    0.010878
H       0.906314    1.730273    0.000638
H       0.500216   -0.396151   -0.887507
H       0.515683   -0.402649    0.879840
H      -2.390001    1.447664    0.025573
H      -2.990116   -3.352158    0.018615
