12

N       0.172232   -1.120156   -0.004849
C       0.056617    0.032621    0.002800
C      -0.073320    1.439363    0.011608
C      -1.211642    2.236919    0.031541
C      -0.786676    3.576127    0.032251
C       0.603244    3.571448    0.012710
N       1.021637    2.265309    0.000352
C       1.520488    4.645921    0.005185
N       2.279415    5.521313   -0.001108
H      -2.225684    1.871506    0.043952
H      -1.404496    4.459352    0.045324
H       1.981655    1.960680   -0.014628
