19

O      -0.302188    1.593740   -0.172345
C       0.035673    0.227637   -0.088330
C       1.122560   -0.288552   -1.098654
C       1.848207   -0.932301    0.091516
O       2.718473   -1.748075    0.189244
C       0.965676   -0.191766    1.106533
C      -1.244279   -0.575707   -0.144126
C      -2.507234   -0.070508    0.502171
C      -2.400218   -0.136444   -1.003682
H       0.505127    2.115419   -0.137122
H       0.801613   -0.950207   -1.906743
H       1.710736    0.529651   -1.531629
H       1.491870    0.664663    1.545317
H       0.529659   -0.782444    1.915725
H      -1.068331   -1.646650   -0.084733
H      -3.143909   -0.786606    1.009663
H      -2.473479    0.913329    0.954152
H      -2.296937    0.804544   -1.530213
H      -2.963292   -0.897892   -1.531739
