20

C      -0.134628    1.400705   -0.021954
N       0.088238   -0.025798    0.030693
C       1.102055   -0.611452   -0.874717
C       1.594031   -1.459887    0.300622
C       0.748576   -0.589201    1.230393
O       1.548157   -2.875916    0.312917
C       2.820487   -2.218732    0.525582
C       3.837223   -2.463822   -0.560610
O       4.325619   -3.792795   -0.518781
H       0.788444    1.994306    0.129497
H      -0.557660    1.674901   -0.993927
H      -0.854890    1.692463    0.749397
H       0.692456   -1.152566   -1.734152
H       1.857684    0.110318   -1.227338
H       1.351902    0.141518    1.794024
H       0.080201   -1.115071    1.920310
H       3.196156   -2.316623    1.545524
H       3.392386   -2.226052   -1.538853
H       4.705171   -1.810588   -0.417518
H       3.556121   -4.370511   -0.580059
