20

C      -0.124345    1.503018    0.134673
C       1.435256    1.621893    0.004090
C       1.500427    0.091585   -0.166159
N       0.906385   -0.452948    1.086250
C       0.017566   -0.012935   -0.018518
C       2.470123   -0.707287   -0.969104
C       2.883569   -0.209189   -2.377279
O       4.280040   -0.227303   -2.026090
C       3.982565   -0.559755   -0.655746
H      -0.563127    1.835806    1.078209
H      -0.647792    1.973403   -0.700479
H       1.736511    2.175802   -0.887532
H       1.969520    2.011327    0.873525
H       0.970042   -1.470183    1.026990
H      -0.681479   -0.708446   -0.468788
H       2.151931   -1.754569   -0.985659
H       2.658283   -0.881832   -3.213131
H       2.536287    0.800662   -2.632401
H       4.225902    0.262769    0.029671
H       4.505452   -1.465144   -0.326852
