16

C       0.033951    1.360034    0.010009
O      -0.032282   -0.072276    0.003693
C      -1.276663   -0.575080    0.010361
O      -2.291259    0.073072    0.020816
N      -1.242491   -1.969729    0.003547
C      -0.124309   -2.798201   -0.008505
C      -0.564734   -4.088957   -0.011584
C      -1.999467   -4.061782   -0.000971
C      -2.388722   -2.755269    0.008203
H       1.096148    1.602932    0.002326
H      -0.460541    1.770935   -0.873226
H      -0.445651    1.762381    0.905326
H       0.863405   -2.373141   -0.013622
H       0.062962   -4.966926   -0.020414
H      -2.659789   -4.915251   -0.000277
H      -3.354061   -2.279731    0.017552
