18

C       0.773930    1.570663   -0.422108
C       0.109310    0.196895   -0.344216
O       0.954952   -0.792298   -0.966337
C       1.262973   -1.842592   -0.049163
C       0.557780   -1.464977    1.225542
C      -0.099396   -0.325755    1.052469
C       0.821422   -3.230512   -0.553740
N       0.184604   -3.210308   -1.749044
O       1.040894   -4.226505    0.108089
H       1.716082    1.572667    0.133404
H       0.980954    1.832162   -1.463625
H       0.116648    2.337874    0.000483
H      -0.842856    0.231838   -0.897827
H       2.352749   -1.907545    0.088709
H       0.601846   -2.086480    2.108656
H      -0.707785    0.191361    1.783484
H       0.132633   -2.345311   -2.260297
H      -0.082532   -4.080966   -2.176649
