12

O      -0.047340    0.014016   -0.001333
C       0.014417    1.217073    0.006947
C       1.274958    1.991815   -0.000610
N       2.472300    1.408633   -0.017838
N       3.342890    2.423658   -0.019456
C       2.767088    3.645393   -0.003932
C       1.402418    3.415527    0.009019
C       0.370970    4.384537    0.027541
N      -0.478579    5.171247    0.042669
H      -0.895476    1.853041    0.021138
H       4.329337    2.215002   -0.031718
H       3.337182    4.560001   -0.003030
