18

C       0.073618    1.528230   -0.040056
C      -0.031533    0.011460    0.073629
O       0.534412   -0.591749   -1.118231
C       1.289575   -1.713851   -0.718290
C       2.862300   -1.788722   -0.784486
C       2.849255   -2.224531    0.732295
C       1.468715   -1.605224    0.759812
C       0.779709   -0.573122    1.228483
H       1.122061    1.840104   -0.061465
H      -0.408039    1.867386   -0.961496
H      -0.422031    2.014215    0.806848
H      -1.097119   -0.268193    0.129318
H       0.840088   -2.643363   -1.096840
H       3.303053   -2.486454   -1.500343
H       3.289930   -0.792304   -0.908220
H       2.847122   -3.314073    0.833414
H       3.604767   -1.805600    1.398917
H       0.853680   -0.085639    2.192744
