17

O       0.015674    1.400867   -0.140629
C       0.119459    0.023184   -0.019818
C       0.012138   -0.602194    1.376255
O      -1.445349   -0.160853    1.390747
C      -1.208827   -0.811106    0.064739
C      -1.975962   -1.348587   -1.117905
C      -0.987565   -2.486248   -1.451352
C      -0.110038   -2.769499   -0.471063
C      -0.475126   -1.951786    0.745662
H      -0.690358    1.651238    0.474010
H       0.904593   -0.334699   -0.685569
H       0.558449   -0.406341    2.299781
H      -2.966504   -1.745307   -0.860282
H      -2.096934   -0.634790   -1.938638
H      -1.028801   -2.999087   -2.406484
H       0.637431   -3.552633   -0.521919
H      -1.083737   -2.504534    1.467916
