18

O       0.058696    0.055854   -0.091229
C       0.060960    1.248530    0.025438
C      -1.078949    2.301515    0.137609
C      -0.003696    3.381713   -0.053242
C       0.981446    3.300666    1.052963
C       1.116186    2.301611   -0.100239
N       2.013065    4.298488    1.058108
C       1.982379    5.246598    2.171767
C       3.020041    4.181753    2.112039
H      -1.762768    2.200169   -0.709845
H      -1.658058    2.330334    1.065848
H      -0.077624    4.252097   -0.689879
H       0.654098    2.935547    2.033608
H       2.040226    2.263698   -0.662079
H       2.227235    6.273718    1.918438
H       1.194371    5.133997    2.914098
H       2.927131    3.354502    2.813169
H       4.037647    4.417169    1.815468
