13

C      -0.473832   -0.726519   -1.006494
C      -0.124753    0.144617   -0.258082
C       0.271374    1.195341    0.668282
N       1.518397    1.846590    0.281586
C       2.337909    1.641430   -0.770180
N       3.363755    2.472742   -0.719044
C       3.113139    3.181134    0.414357
N       2.007741    2.842767    1.059524
H      -0.785820   -1.498600   -1.666560
H      -0.509021    1.962160    0.731277
H       0.399201    0.786507    1.676925
H       2.145704    0.894319   -1.523122
H       3.759466    3.966912    0.776285
