20

C       0.433181    1.402315    0.140949
C       0.252234   -0.111764    0.009014
C       0.856287   -0.672226   -1.287289
O       2.246970   -0.423060   -1.395660
C       0.542026   -2.157798   -1.459990
C       1.337278   -3.018528   -2.405905
N       1.433250   -3.183337   -0.968349
C       2.556955   -3.078131   -0.193952
O       2.691216   -2.351187    0.771306
H       1.491194    1.674474    0.098650
H      -0.077619    1.934832   -0.669292
H       0.025294    1.764240    1.089163
H       0.717794   -0.631004    0.854738
H      -0.815566   -0.364089    0.033414
H       0.397750   -0.153829   -2.141737
H       2.642470   -0.679533   -0.550398
H      -0.512523   -2.405025   -1.342702
H       0.849248   -3.818826   -2.955277
H       2.179575   -2.538642   -2.896393
H       3.332377   -3.803000   -0.504456
