10

O      -0.083790    0.018223    0.003930
N      -0.023056    1.243449    0.006994
O       0.992100    1.917023    0.002448
C      -1.299486    1.924716    0.017192
N      -1.392626    3.250654    0.021542
N      -2.696429    3.430461    0.030478
N      -3.463403    2.341279    0.032329
C      -2.577935    1.348500    0.023877
H      -3.097023    4.356662    0.035671
H      -2.867717    0.312244    0.022841
