16

O       0.026279    0.077257    0.187800
C       0.046543    1.269586    0.034570
N      -1.044917    2.147282   -0.052496
C      -0.407531    3.483970   -0.021300
C       0.686119    3.277195   -1.104045
C       1.234483    2.246537   -0.057231
C       0.738709    3.282816    0.990941
C       1.459153    4.195229    1.866828
O       0.634124    3.119330    2.374905
H      -1.851420    1.951554    0.524189
H      -1.106111    4.317678   -0.012754
H       0.343744    2.881393   -2.060537
H       1.342240    4.139360   -1.232861
H       2.231912    1.817511   -0.075976
H       2.528747    4.069356    2.025404
H       1.073968    5.196862    2.051762
