19

O      -0.068354    1.464219    0.005110
C       0.031632    0.049843   -0.043381
C      -1.385518   -0.527362    0.024816
C      -1.387955   -2.047394   -0.191337
C      -2.773759   -2.646789    0.073987
C      -3.304194   -2.289818    1.459287
O      -4.041297   -3.029639    2.080147
C      -2.899902   -0.966753    1.980572
C      -2.057425   -0.159956    1.322037
H       0.817831    1.831266    0.070225
H       0.512589   -0.285589   -0.975750
H       0.628151   -0.339767    0.796915
H      -1.948044   -0.045781   -0.791357
H      -1.056562   -2.286591   -1.207674
H      -0.661478   -2.503950    0.494312
H      -3.494057   -2.252908   -0.657881
H      -2.781559   -3.734921   -0.027042
H      -3.347040   -0.677144    2.926806
H      -1.816774    0.824169    1.715584
