22

C      -0.120220    1.545078    0.203997
C       0.059908    0.045083   -0.020214
N       0.766239   -0.581436    1.078850
C       2.213298   -0.319985    1.239738
C       2.439166   -1.825214    1.533338
O       2.487431   -2.217932    2.888960
C       1.153116   -2.360670    3.384732
C       0.306226   -2.804619    2.181333
C       0.982164   -2.046924    1.040632
H       0.847974    2.051469    0.278784
H      -0.668621    1.997853   -0.627694
H      -0.670314    1.731663    1.130855
H      -0.922556   -0.435957   -0.105077
H       0.579030   -0.123381   -0.986373
H       2.709104   -0.008115    0.305610
H       2.476387    0.382273    2.037564
H       3.270705   -2.300001    1.010509
H       1.181407   -3.087401    4.200911
H       0.782986   -1.403825    3.776590
H       0.393203   -3.884693    2.020563
H      -0.750080   -2.547021    2.292112
H       0.858089   -2.501175    0.049783
