20

C       0.273934    1.562832    0.063928
C       0.155272    0.112250    0.050187
C       0.061547   -1.089551    0.046292
C      -0.027903   -2.523388   -0.007258
C      -0.506638   -3.297374    1.187748
N      -1.329161   -3.227054   -0.007809
C      -2.531010   -2.440628    0.059585
C      -3.395310   -2.411936   -1.169648
C      -3.830611   -3.198349    0.045233
H       1.321834    1.872713   -0.016338
H      -0.269897    2.017659   -0.771608
H      -0.125606    1.987801    0.991441
H       0.705685   -2.999083   -0.654719
H      -0.070099   -4.266831    1.414090
H      -0.808102   -2.711566    2.053966
H      -2.487373   -1.530243    0.657791
H      -3.914057   -1.490827   -1.409869
H      -3.041879   -2.975571   -2.025064
H      -3.765271   -4.278601   -0.012064
H      -4.650479   -2.820453    0.645860
