21

C      -0.221684    1.641555    0.431832
C       0.127939    0.182418    0.186521
C       0.589804   -0.411224   -1.190684
C       1.586768   -1.232679   -0.345890
C       2.546859   -0.163534   -0.028798
C       2.549817    0.872672   -1.142766
N       1.442696    0.441079   -2.003970
C       0.827787    1.448132   -2.842157
N       1.359222   -0.366757    0.865136
H       0.549302    2.335800    0.094646
H      -1.158298    1.902738   -0.072885
H      -0.364819    1.802383    1.506176
H      -0.695209   -0.437967    0.562819
H      -0.166584   -0.913887   -1.796121
H       1.737439   -2.304019   -0.303086
H       3.475098   -0.381442    0.486880
H       2.430450    1.897820   -0.757688
H       3.505070    0.849588   -1.686989
H       1.578962    1.859887   -3.525933
H       0.045457    0.985201   -3.452885
H       0.375870    2.294467   -2.296651
