22

C       0.059806    1.535833   -0.118949
C      -0.071513    0.016720   -0.250202
C      -1.424340   -0.508856    0.250468
C      -1.534586   -2.016601    0.159128
C      -2.839588   -2.761020    0.141662
C      -4.188011   -2.079806    0.216566
C      -1.986767   -2.712934   -1.128716
C      -2.418099   -1.925896   -2.247509
N      -2.764762   -1.285827   -3.148074
H       1.034309    1.882525   -0.475869
H      -0.710504    2.050543   -0.703338
H      -0.046274    1.855352    0.923952
H       0.059895   -0.275771   -1.298965
H       0.736000   -0.473381    0.309936
H      -1.567855   -0.209448    1.297608
H      -2.227180   -0.029395   -0.319240
H      -0.716784   -2.538764    0.651022
H      -2.814908   -3.733882    0.625728
H      -4.223027   -1.162308   -0.374393
H      -4.972961   -2.742542   -0.161151
H      -4.432760   -1.826355    1.253339
H      -1.467065   -3.621423   -1.413634
