22

C       2.254709   -2.941687    1.119214
C       1.036371   -2.024684    1.058590
O       0.133205   -2.362648    0.011476
C       0.225278   -1.621842   -1.184834
C       1.262859   -2.139472   -2.174142
C       1.279168   -1.574192   -3.623701
C       2.744827   -1.227892   -3.371264
C       2.876236   -0.340348   -2.203844
N       2.725141   -1.789541   -1.960756
H       1.936820   -3.985156    1.208024
H       2.873364   -2.833834    0.224448
H       2.862939   -2.695092    1.997074
H       0.460812   -2.108169    1.989012
H       1.348616   -0.973991    0.962984
H      -0.756659   -1.710150   -1.668705
H       0.381224   -0.552994   -0.969245
H       1.198106   -3.230540   -2.176290
H       1.119357   -2.343239   -4.380845
H       0.623991   -0.724727   -3.844378
H       3.566788   -1.430724   -4.049919
H       3.867607    0.017658   -1.944452
H       2.071478    0.346139   -1.951390
