22

C      -0.786486    1.464053    0.035055
C      -0.248438    0.048806   -0.088391
C       0.604156   -0.394075   -1.319990
C       0.925762    0.572022   -2.446210
O      -0.271705    0.771966   -3.188351
C       1.702345   -0.756647   -0.314198
C       2.507186   -2.022983   -0.354638
C       2.046447    0.405733    0.531128
N       0.838789   -0.369619    0.880651
H      -0.011166    2.228633   -0.069471
H      -1.531909    1.643977   -0.744989
H      -1.259724    1.601703    1.012640
H      -1.076005   -0.650028    0.059034
H       0.173564   -1.292365   -1.772516
H       1.307535    1.525299   -2.052551
H       1.720542    0.141429   -3.078151
H      -0.097200    1.423519   -3.873763
H       3.263570   -1.982481   -1.147789
H       3.023589   -2.183964    0.596108
H       1.867840   -2.891968   -0.545107
H       2.845424    0.270742    1.254611
H       1.955673    1.423098    0.162105
