20

C      -0.166659    1.454751    0.009980
N      -0.002961    0.009704    0.090643
C       1.320711   -0.531123   -0.218523
C       0.794221   -0.552707    1.174610
C       1.409017    0.307933    2.293957
O       1.745471   -0.581769    3.353827
C       0.989915   -1.760723    3.213267
C      -0.505985   -1.652803    3.100933
C       0.356019   -1.819107    1.856140
H       0.730780    2.031435    0.288200
H      -0.431218    1.721155   -1.018111
H      -0.990219    1.767229    0.659959
H       1.336781   -1.434552   -0.824218
H       2.123336    0.174180   -0.436005
H       2.318987    0.836039    1.996784
H       0.683284    1.057958    2.643036
H       1.459168   -2.602528    3.707942
H      -1.090335   -2.512902    3.409697
H      -0.984825   -0.696887    3.285266
H       0.290172   -2.728895    1.272643
