19

C       0.475765    1.337388   -0.246819
C      -0.052207   -0.046652    0.167110
C       0.541146   -0.541684    1.437571
N      -0.041473   -0.788020    2.563468
N       0.960400   -1.219256    3.442112
C       2.066141   -1.195605    2.775369
C       3.434948   -1.566608    3.222490
C       4.011105   -2.774417    2.464264
O       1.884427   -0.775910    1.489746
H       1.560287    1.318581   -0.385306
H       0.017258    1.651480   -1.188342
H       0.242393    2.087344    0.514316
H      -1.134670   -0.021201    0.314036
H       0.153049   -0.772818   -0.628762
H       4.097588   -0.701796    3.096536
H       3.370785   -1.775015    4.293196
H       3.388243   -3.661140    2.612546
H       4.067799   -2.573525    1.390882
H       5.019008   -3.000643    2.822454
