13

C       0.006814    1.479174    0.055434
N      -0.104376    0.034360    0.165751
C      -1.207073   -0.713774    0.038458
N      -1.128810   -2.009686    0.169315
C      -2.273937   -2.728151    0.031729
O      -2.418916   -3.907890    0.112582
O      -3.470463   -1.973851   -0.247849
N      -3.456489   -0.606273   -0.368878
N      -2.385860    0.013052   -0.235560
H       0.693487    1.747379   -0.753829
H      -0.974645    1.897704   -0.156768
H       0.383211    1.904603    0.991228
H       0.728403   -0.503368    0.361554
