21

C       0.294033    1.780623   -0.198368
C       0.075125    0.286538   -0.106932
C       0.461857   -0.721281   -1.133268
C       1.449935   -0.369784   -2.235501
C       2.690021    0.142293   -1.495450
C       4.016230    0.251338   -2.144446
N       3.266600    1.470419   -1.779644
C       2.516766   -0.255629   -0.022535
N       1.129599   -0.704662    0.191979
H       1.204217    2.066364   -0.726011
H      -0.558721    2.247254   -0.704380
H       0.348882    2.212200    0.807473
H      -0.833156    0.043125    0.444512
H      -0.204306   -1.560109   -1.321111
H       1.681432   -1.271416   -2.813483
H       1.060515    0.373015   -2.941538
H       4.921473    0.081352   -1.566301
H       4.099069   -0.013269   -3.196209
H       2.837977    1.863209   -2.615352
H       3.168396   -1.101527    0.224523
H       2.780333    0.573521    0.640879
