14

N      -0.062999    1.280579    0.011905
C      -0.034523    0.026578    0.004695
O       1.093716   -0.772065   -0.007055
C       0.725217   -2.104095   -0.012184
O       1.491965   -3.006653   -0.022190
O      -0.620763   -2.203490   -0.004078
C      -1.187768   -0.902393    0.006930
C      -2.454903   -0.657803    0.771397
C      -2.464714   -0.649298   -0.738183
H       0.871820    1.686660    0.008159
H      -2.883098   -1.517240    1.274145
H      -2.524189    0.287342    1.297367
H      -2.540762    0.301708   -1.252526
H      -2.899477   -1.503043   -1.244977
