16

C      -0.032819    1.469853   -0.141020
O       0.012280    0.084322    0.209557
C      -1.196024   -0.554536    0.095733
C      -1.950134   -1.023475    1.152120
O      -1.743761   -0.975456    2.483131
N      -3.040772   -1.613885    0.628968
N      -3.046974   -1.574137   -0.743888
C      -1.930612   -0.930520   -1.059297
N      -1.602821   -0.622100   -2.381895
H       0.985119    1.853000   -0.038069
H      -0.374994    1.603146   -1.173496
H      -0.703807    2.024782    0.527200
H      -0.879529   -0.565959    2.616204
H      -3.779040   -2.085056    1.119487
H      -2.191241   -1.134238   -3.028447
H      -0.626683   -0.799576   -2.585753
