15

N      -0.045562    0.868370   -0.967161
C      -0.091263   -0.210713   -0.303333
C      -0.902203   -0.459909    0.970310
N      -0.643140   -1.849668    1.370270
C       0.165549   -2.299082    0.488339
N       0.656790   -3.601098    0.516984
C       1.515455   -4.175988   -0.381492
O       1.988664   -3.628153   -1.354862
N       0.549081   -1.434972   -0.517619
H       0.566949    0.791205   -1.780421
H      -0.604488    0.235827    1.762494
H      -1.970428   -0.298462    0.789170
H       0.318311   -4.150478    1.294314
H       1.737740   -5.224086   -0.115997
H       1.175374   -1.705632   -1.262264
