18

C      -0.258157    1.456945   -0.078518
N       0.005139    0.025030    0.041714
C       1.372189   -0.434216   -0.184916
C       0.777633   -0.466994    1.179396
C       1.304458    0.436274    2.267961
C       2.726969    0.339379    2.668771
O       2.267738    1.436145    1.886564
C       0.330189    0.857264    3.249296
C      -0.503782    1.176582    4.053611
H       0.583426    2.099317    0.213064
H      -0.513089    1.670874   -1.121058
H      -1.121578    1.712762    0.542630
H       1.480984   -1.351024   -0.758657
H       2.137628    0.319543   -0.357581
H       0.407328   -1.410243    1.579411
H       3.007787    0.581370    3.691486
H       3.364871   -0.374318    2.150085
H      -1.236954    1.467551    4.765071
