13

N       0.019785    1.273664    0.009244
C       1.260765    1.810660    0.000170
C       2.122700    0.713404   -0.014501
N       3.475196    0.611739   -0.028306
C       3.909009   -0.626959   -0.039594
N       3.179097   -1.787065   -0.039049
C       1.869693   -1.691437   -0.025697
C       1.253702   -0.420836   -0.012450
N      -0.043967   -0.065147    0.002266
H      -0.848842    1.786237    0.020651
H       1.431027    2.874241    0.004548
H       4.986465   -0.769293   -0.050940
H       1.284826   -2.609403   -0.025196
