16

O      -0.024422    1.416908   -0.054986
C      -0.009556    0.005077    0.011632
C      -1.410084   -0.578626    0.054022
O      -2.036112   -0.185900   -1.178687
C      -3.325093   -0.522271   -1.341087
C      -4.128667   -0.195123   -2.388431
O      -5.356642   -0.761664   -2.138637
C      -5.211208   -1.387766   -0.961338
N      -4.031117   -1.287167   -0.432721
H      -0.583524    1.646445   -0.805614
H       0.540443   -0.435092   -0.835245
H       0.518391   -0.267387    0.931258
H      -1.389612   -1.671259    0.135244
H      -1.977226   -0.174795    0.899104
H      -4.015423    0.364379   -3.297843
H      -6.071543   -1.906924   -0.569923
