14

O      -0.113750    1.458389    0.011251
C       0.043708    0.053658    0.002050
C      -1.375818   -0.534944    0.012482
C      -1.387224   -1.984626    0.004800
C      -1.383145   -3.197355   -0.001819
C      -1.377870   -4.547817   -0.009216
C      -1.372834   -5.763996   -0.015872
C      -1.365954   -7.122793   -0.023285
N      -1.359521   -8.286556   -0.029566
H       0.758274    1.863723    0.004547
H       0.577775   -0.296346   -0.893367
H       0.594844   -0.306049    0.883166
H      -1.902798   -0.160556    0.898942
H      -1.919644   -0.151101   -0.859641
