18

O      -0.112624    0.066714    0.624440
C      -0.012962    1.188699    0.173549
N       1.142746    1.764681   -0.251914
C       2.432877    1.101401   -0.208008
C       3.060833    0.866098   -1.610605
C       4.591080    0.913072   -1.401522
C       4.762244    1.806928   -0.187759
O       3.980978    3.012283   -0.243951
C       3.490135    1.904450    0.531166
H      -0.877023    1.872818    0.059442
H       1.115239    2.711046   -0.600150
H       2.263244    0.155137    0.313303
H       2.717896   -0.070283   -2.054863
H       2.752219    1.677463   -2.274252
H       4.995812   -0.078722   -1.166625
H       5.125799    1.284797   -2.280849
H       5.723760    1.903574    0.309522
H       3.408975    2.076402    1.601102
