18

C       0.077624    1.553133    0.057618
C       0.034554    0.059042    0.038627
C      -0.012884   -0.725965   -1.067356
N      -0.034763   -0.422219   -2.426375
O      -0.042464   -2.072826   -0.675148
C      -0.011699   -2.069706    0.674563
O      -0.032651   -3.270542    1.286785
C       0.035801   -0.817270    1.194115
C       0.079601   -0.433386    2.639443
H       0.980256    1.923455    0.558542
H       0.066050    1.944636   -0.962022
H      -0.779216    1.973671    0.597784
H      -0.876249   -0.747707   -2.892228
H       0.765514   -0.793722   -2.928977
H      -0.062687   -3.950982    0.604939
H       0.982066    0.140499    2.883583
H      -0.779089    0.186782    2.924876
H       0.071088   -1.322718    3.274999
