17

C       0.097668    1.428845    0.265095
N      -0.250288    0.080682   -0.170349
C       0.533861   -0.422377   -1.245228
C       1.896424   -1.181071   -0.978778
O       1.111797   -2.268034   -0.349811
C       0.368019   -1.924476   -1.584668
C       1.735067   -1.928184   -2.335463
C       1.897861   -1.228930   -3.597436
N       2.031949   -0.673496   -4.602629
H       1.137840    1.541639    0.614552
H      -0.053654    2.130568   -0.562211
H      -0.568433    1.727261    1.079021
H      -0.210361   -0.576684    0.601787
H       0.536004    0.272258   -2.089589
H       2.821340   -0.876731   -0.489993
H      -0.528861   -2.499172   -1.813960
H       2.210079   -2.909165   -2.340762
