17

C      -0.056465    1.404895    0.039154
N      -0.006319   -0.044133   -0.006222
C      -1.094783   -0.686294    0.021855
O      -2.377823   -0.132118    0.065841
C      -3.281108   -1.170703    0.021790
O      -4.579708   -0.850880    0.098688
C      -2.646012   -2.343760   -0.031162
N      -1.266948   -2.049835    0.011387
C      -0.182836   -2.990095   -0.137229
H       0.947765    1.801365   -0.133229
H      -0.724070    1.834490   -0.722291
H      -0.397944    1.780729    1.015204
H      -4.691324    0.047725   -0.235141
H      -3.026344   -3.347939   -0.065909
H      -0.282388   -3.808298    0.583645
H      -0.144776   -3.413737   -1.149257
H       0.745626   -2.450795    0.053568
