17

C      -0.016503    1.412649   -0.061129
N      -0.035687   -0.038840   -0.091304
C      -1.229988   -0.718535   -0.043297
O      -2.307688   -0.193619    0.177026
N      -1.112331   -2.084980   -0.264984
C      -0.009416   -2.951830    0.207496
C      -1.091448   -3.998096    0.557627
O      -1.069128   -5.118886    0.960605
C      -2.190044   -3.002102    0.153127
H       0.866507    1.766551    0.478744
H      -0.016416    1.853911   -1.066247
H      -0.915370    1.745108    0.458245
H       0.743315   -0.502466   -0.530338
H       0.707114   -3.262747   -0.561526
H       0.535016   -2.563193    1.077869
H      -2.795466   -2.619768    0.983346
H      -2.855843   -3.331667   -0.651000
