22

C      -0.063176    1.503628    0.063680
C      -0.141142   -0.005156    0.312226
C      -1.431631   -0.631731   -0.225266
C      -1.509120   -2.131169    0.024197
O      -2.728983   -2.616020   -0.513347
C      -2.898962   -3.986547   -0.346929
C      -3.464898   -4.508714    0.950642
C      -4.306545   -4.483035   -0.311674
H       0.867059    1.925643    0.456596
H      -0.106472    1.730624   -1.007244
H      -0.896543    2.027032    0.545207
H       0.724245   -0.497087   -0.151468
H      -0.060209   -0.202613    1.389411
H      -2.303419   -0.154104    0.239060
H      -1.516959   -0.451514   -1.304004
H      -0.655734   -2.644331   -0.451218
H      -1.455731   -2.350006    1.102957
H      -2.148217   -4.596702   -0.852509
H      -3.115947   -5.462811    1.330342
H      -3.701367   -3.772959    1.711242
H      -5.082485   -3.728537   -0.371005
H      -4.539893   -5.418323   -0.807667
