19

C       0.063996    1.548973    0.109502
C       0.011216    0.028047   -0.031824
C       0.697583   -0.503061   -1.319257
O       2.053551   -0.073580   -1.230466
C       2.896042   -0.449462   -2.307193
C       0.607401   -1.976944   -1.342576
C       0.540784   -3.176496   -1.324220
C       0.038222    0.041409   -2.524024
C      -0.496904    0.501128   -3.496834
H       1.097310    1.901923    0.121682
H      -0.456408    2.041502   -0.716842
H      -0.416885    1.854549    1.043414
H       0.521259   -0.455183    0.807179
H      -1.022863   -0.329060   -0.036885
H       2.963493   -1.540559   -2.403386
H       2.547425   -0.027796   -3.258403
H       3.883563   -0.046136   -2.073918
H       0.478312   -4.236958   -1.317825
H      -0.971939    0.899680   -4.359486
