16

O      -0.119611    1.446057   -0.075938
C      -0.018369    0.055199    0.015832
C       0.889196   -0.514804   -1.099870
C       2.245059    0.015915   -0.985951
N       3.296574    0.476981   -0.851584
C       0.276414   -0.595298    1.428086
C      -1.070128   -1.316961    1.302202
O      -2.067714   -0.297278    1.212235
C      -1.381270   -0.658525    0.020050
H       0.753373    1.830924    0.070340
H       0.921148   -1.608626   -1.059874
H       0.478250   -0.226792   -2.073883
H       1.154763   -1.244546    1.433735
H       0.324642    0.112680    2.256996
H      -1.372404   -2.286506    1.678217
H      -1.974992   -0.971234   -0.832295
