19

C      -0.064679    1.499221   -0.264962
C      -0.077858    0.018021    0.133082
C      -1.456272   -0.581684    0.101688
O      -2.382089    0.061409    0.958482
C      -3.409353   -0.881114    1.285674
C      -3.247073   -1.971329    0.239198
O      -3.441204   -1.332380   -1.063387
C      -2.026530   -1.185525   -1.177476
C      -1.719363   -2.060022    0.017040
H       0.948306    1.908296   -0.207905
H      -0.429748    1.636102   -1.287834
H      -0.708772    2.079899    0.400123
H       0.567716   -0.560600   -0.538956
H       0.333763   -0.100457    1.143125
H      -3.272902   -1.268953    2.307555
H      -4.381331   -0.384405    1.212090
H      -3.848451   -2.873137    0.357742
H      -1.595478   -1.116597   -2.170547
H      -1.044153   -2.885701    0.198004
