24

C      -0.116795    1.548342   -0.505109
C      -0.050093    0.115612    0.030650
C      -1.402267   -0.603549   -0.003443
C      -1.341216   -2.039133    0.535199
C      -2.690232   -2.721799    0.487973
N      -3.102667   -3.325220   -0.793884
C      -2.921245   -4.189162    0.392985
C      -1.840992   -5.236358    0.246277
O      -2.209707   -6.205224   -0.721783
H       0.862725    2.035315   -0.468586
H      -0.458933    1.565866   -1.545855
H      -0.813735    2.157824    0.081035
H       0.679955   -0.460765   -0.552886
H       0.328774    0.126720    1.061518
H      -2.135326   -0.026126    0.577874
H      -1.780585   -0.629703   -1.033630
H      -0.615959   -2.612170   -0.050648
H      -0.979314   -2.030588    1.572510
H      -3.465798   -2.177945    1.029495
H      -4.089862   -3.161181   -0.968084
H      -3.829502   -4.563230    0.863752
H      -0.881537   -4.766885   -0.010243
H      -1.705289   -5.776030    1.189657
H      -2.415343   -5.705042   -1.520898
