13

C       0.151117    1.536086    0.159179
C      -0.111893    0.051838   -0.091480
N       0.666841   -0.467809   -1.209632
C       1.800875   -1.189549   -1.237129
N       2.157863   -1.387417   -2.487492
N       1.210999   -0.763029   -3.236299
N       0.316024   -0.208588   -2.486939
H       1.201017    1.712980    0.409326
H      -0.097669    2.121775   -0.728819
H      -0.466057    1.885338    0.991706
H       0.142373   -0.550969    0.784431
H      -1.164589   -0.123768   -0.325697
H       2.314306   -1.544710   -0.358505
