18

O      -0.236213    0.059692   -0.379550
C      -0.133460    1.221325   -0.137097
N      -1.123660    2.264081   -0.033881
C      -0.187230    3.033135    0.832650
C       0.792388    4.269322    0.812382
C       1.888915    3.134801    1.130940
C       0.958726    2.314065    0.159347
C       1.206285    3.107117   -1.168124
C       1.041890    4.568773   -0.663083
H      -2.075539    2.037216    0.231396
H      -0.299612    2.716686    1.875421
H       0.648819    5.105265    1.498651
H       2.911707    3.338073    0.803650
H       1.872828    2.801886    2.168614
H       2.213112    2.894859   -1.538956
H       0.495972    2.850416   -1.953611
H       0.194463    5.078299   -1.128628
H       1.932801    5.183266   -0.819012
