21

C       0.048888    1.548044   -0.141030
C       0.018498    0.055548    0.041076
O       0.457890   -0.596185   -1.157601
C       0.365787   -1.988995   -0.807455
C      -0.143406   -1.877631    0.623224
C       0.717422   -0.710607    1.214197
C      -0.010862   -0.278910    2.487650
C      -1.484076   -0.312663    1.965968
C      -1.230883   -0.755210    0.524275
H       1.064100    1.883358   -0.375236
H      -0.602980    1.844747   -0.968658
H      -0.284853    2.064506    0.762984
H      -0.329390   -2.503875   -1.482582
H       1.351078   -2.465405   -0.887476
H      -0.321039   -2.796940    1.184255
H       1.806897   -0.783055    1.236783
H       0.157029   -0.973397    3.316278
H       0.295374    0.714973    2.828398
H      -2.107367   -1.025297    2.514407
H      -1.976619    0.662908    2.023903
H      -2.087944   -0.872244   -0.142405
