19

C       0.004919    1.448293    0.373315
C       0.010191    0.014339   -0.176436
C      -1.368400   -0.555417   -0.302350
C      -2.480211   -0.177672   -1.301470
C      -2.947242   -1.659490   -1.179255
O      -3.718573   -2.336961   -1.791507
C      -1.860881   -1.960746   -0.148397
C      -1.223042   -3.257068    0.219853
O      -2.065552   -0.957371    0.880980
H       1.024998    1.832413    0.461613
H      -0.552894    2.123355   -0.283652
H      -0.459971    1.480173    1.362847
H       0.490231   -0.007754   -1.162505
H       0.598026   -0.634175    0.482384
H      -3.172620    0.596138   -0.964437
H      -2.144186    0.035191   -2.321312
H      -0.955092   -3.820183   -0.679151
H      -0.322779   -3.090080    0.817185
H      -1.914207   -3.870166    0.807124
