19

O      -0.124411    1.388179   -0.107197
C      -0.070111    0.002976    0.062932
C      -0.612801   -0.626972    1.323376
C      -1.388706   -0.711122    0.035858
C      -2.722929   -0.043410   -0.306397
C      -2.952175   -1.153182   -1.371826
C      -1.743481   -1.964894   -0.798998
C      -0.713879   -2.416577   -1.798253
O      -0.173199   -3.493549   -1.802985
H       0.529945    1.787876    0.475211
H       0.785324   -0.484234   -0.406622
H      -0.126867   -1.520619    1.703216
H      -1.005755    0.042543    2.082827
H      -3.445091   -0.081121    0.514339
H      -2.656561    0.983227   -0.670896
H      -3.913397   -1.669054   -1.355982
H      -2.761632   -0.802797   -2.390602
H      -2.037548   -2.815427   -0.178821
H      -0.465911   -1.647628   -2.568548
