15

C      -0.086115    1.545082    0.083596
C       0.000450    0.050497   -0.092014
C       0.703469   -0.659451   -1.224839
C       1.703287    0.046969   -2.062320
C       2.741540    0.429011   -1.306003
C       2.460410    0.084278    0.113874
O       3.071087    0.405588    1.100449
N       1.249196   -0.709009    0.135657
H       0.711056    2.077397   -0.438397
H      -1.048391    1.903851   -0.294534
H      -0.024595    1.799500    1.146608
H      -0.864205   -0.484564    0.298618
H       0.257621   -1.573903   -1.609000
H       1.590786    0.187185   -3.130422
H       3.616461    0.989576   -1.605982
