21

C      -0.332255    1.479558    0.012756
C       0.090836    0.005810   -0.059642
C       0.983910   -0.282359   -1.245820
C       1.743521   -1.375198   -1.312881
C       1.754910   -2.399940   -0.207879
C       1.594113   -1.763895    1.171820
O       2.789433   -1.053726    1.571656
C       2.083121    0.197725    1.660832
C       0.748150   -0.463596    1.248576
H       0.534635    2.137466    0.137118
H      -0.847385    1.782160   -0.904712
H      -1.011727    1.656055    0.852963
H      -0.828526   -0.589941   -0.180737
H       0.976505    0.432721   -2.065213
H       2.361555   -1.560521   -2.186944
H       0.942970   -3.127869   -0.358817
H       2.686916   -2.975907   -0.211900
H       1.332031   -2.528633    1.914661
H       2.112082    0.615603    2.674855
H       2.483886    0.937929    0.956995
H       0.007889   -0.472203    2.052377
