15

O       0.034042   -0.002839   -0.098090
C       0.014296    1.179561    0.068232
C      -1.159377    2.211742    0.183893
C      -0.123781    3.324514   -0.060288
C       0.933786    3.328830    0.999128
C       1.046244    2.279299   -0.087172
N       1.885942    2.547902   -1.223869
C       1.325473    3.547447   -1.808457
N       0.108426    4.006923   -1.296210
H      -1.843661    2.064233   -0.656112
H      -1.728669    2.258752    1.116192
H       1.698267    4.095675    0.946189
H       0.655418    3.028911    2.003428
H       1.737448    4.030712   -2.689742
H      -0.185885    4.958507   -1.453845
