18

C       0.083937    1.595015    0.011626
C       0.002189    0.054225    0.051636
C       0.726161   -0.448079    1.226370
N       1.297551   -0.829612    2.155559
C      -1.450394   -0.496204    0.039751
C      -2.234196   -0.016475   -1.201132
O      -3.440998   -0.729872   -1.380111
C      -1.451024   -2.021336    0.038488
O      -2.042994   -2.698102    0.833525
H       1.123546    1.920350    0.093175
H      -0.320131    1.980138   -0.926771
H      -0.476150    2.034841    0.841503
H       0.520827   -0.343256   -0.831846
H      -1.968618   -0.176699    0.951385
H      -2.408609    1.066253   -1.137892
H      -1.645571   -0.201075   -2.107872
H      -3.974828   -0.639791   -0.583135
H      -0.857308   -2.477380   -0.788141
