14

N      -0.046197    1.140927    0.902947
C      -0.022221    0.130045    0.115709
C      -1.293110   -0.524371   -0.191729
C      -1.580910   -1.450819   -1.114957
N      -0.749123   -2.067015   -2.033619
C       0.612385   -1.977499   -2.218173
O       1.157085   -2.596144   -3.111439
C       1.470436   -1.143684   -1.296961
N       1.235760   -0.305894   -0.373087
H       0.913707    1.467020    1.038104
H      -2.117787   -0.161318    0.409380
H      -2.606209   -1.791869   -1.205905
H      -1.179862   -2.695256   -2.698402
H       2.518011   -1.336667   -1.539091
