17

O       0.015909    1.278240   -0.166434
C      -0.011560   -0.108351   -0.003247
C      -0.534529   -0.709424    1.284422
C      -1.361400   -0.744296    0.031308
C      -2.665084   -0.004987   -0.303483
C      -2.818614   -1.015372   -1.458054
O      -3.342088   -0.984924   -2.534030
C      -1.759137   -1.959239   -0.844496
O      -0.834501   -2.595189   -1.675545
H       0.757662    1.626298    0.339200
H       0.771825   -0.657951   -0.525720
H      -0.089429   -1.632972    1.642627
H      -0.842741   -0.013460    2.058664
H      -3.447785   -0.103779    0.455950
H      -2.576289    1.041754   -0.600835
H      -2.237252   -2.731891   -0.227619
H      -0.744594   -2.070280   -2.479213
