13

O       0.308624    1.051538    0.739273
C       0.020185    0.071308   -0.244991
C      -1.382287   -0.455177   -0.150388
C      -2.208829   -0.367415    0.927390
O      -3.410307   -0.950546    0.664203
C      -3.346542   -1.423877   -0.606589
C      -2.136919   -1.150113   -1.158328
H      -0.323552    1.768543    0.620036
H       0.206935    0.450766   -1.262614
H       0.747311   -0.731970   -0.075512
H      -2.091737    0.055250    1.910529
H      -4.233369   -1.918192   -0.967685
H      -1.812884   -1.404424   -2.155964
