15

C      -0.182565    1.466050   -0.003101
C       0.053556   -0.014369    0.007693
O      -1.157234   -0.808233    0.137765
C      -0.570573   -1.640070    1.169097
C       0.772588   -0.922553    1.039249
O       1.598505   -1.483121   -0.021348
C       1.017164   -0.662015   -0.981446
N       1.249193   -0.537371   -2.204066
H       0.765820    2.010555   -0.016367
H      -0.739980    1.735179   -0.905651
H      -0.764458    1.772024    0.870166
H      -1.075956   -1.491891    2.130907
H      -0.560322   -2.703009    0.908204
H       1.358714   -0.623051    1.905498
H       1.977607   -1.179493   -2.521742
