27

C      -0.262116    1.523638   -0.879215
C      -0.050554    0.118115   -0.297426
C       0.630573    0.198142    1.077011
C      -1.375053   -0.640994   -0.215536
C      -2.219240   -0.874155   -1.497723
C      -2.665142   -2.237957   -0.907869
C      -2.896740   -3.418182   -1.840344
C      -1.420961   -2.188697    0.043745
C      -0.206848   -2.980493   -0.441948
H       0.686634    2.065034   -0.958579
H      -0.709533    1.483155   -1.877224
H      -0.928558    2.115122   -0.239518
H       0.617212   -0.427826   -0.978003
H       0.801866   -0.794176    1.505739
H       1.598921    0.705691    1.011107
H       0.009736    0.760905    1.784830
H      -2.007293   -0.148513    0.535687
H      -2.994338   -0.144259   -1.746235
H      -1.581496   -1.010596   -2.379161
H      -3.565182   -2.081964   -0.301483
H      -2.031077   -3.608241   -2.483116
H      -3.105993   -4.338043   -1.282176
H      -3.755016   -3.228595   -2.495033
H      -1.631841   -2.472441    1.080171
H       0.067234   -2.738635   -1.474071
H       0.670314   -2.785241    0.183302
H      -0.405295   -4.056778   -0.400475
