16

C      -0.091324    1.523903    0.062297
C       0.161805    0.056568   -0.029141
O      -0.778048   -0.848904    0.585837
C       0.601375   -0.956775    0.946762
C       1.278747   -1.820599   -0.130625
C       0.806556   -3.185710   -0.270548
N       0.411486   -4.264816   -0.395591
C       0.746829   -0.753794   -1.205836
O      -0.139128   -1.177925   -2.184352
H       0.815547    2.087948   -0.177028
H      -0.870719    1.821564   -0.647024
H      -0.420418    1.794683    1.068638
H       0.857730   -0.874579    1.996039
H       2.369526   -1.799856   -0.065073
H       1.583783   -0.262189   -1.706464
H      -0.908926   -1.547718   -1.730882
