19

C       0.007646    1.350614   -0.374555
C       1.459494    1.510673    0.109848
C       1.246054    0.134883    0.796758
C       2.114044   -0.986909    0.227494
O       1.934193   -2.209958    0.910715
C       2.336430   -2.134744    2.262047
C       1.808263   -0.915154    2.963244
C       1.288595    0.111655    2.294568
O      -0.130180    0.085511    0.300624
H      -0.704517    2.095054    0.001544
H      -0.125255    1.255942   -1.459454
H       2.222561    1.517562   -0.671946
H       1.642309    2.341421    0.793654
H       1.843558   -1.169965   -0.815897
H       3.171860   -0.668623    0.266023
H       1.960801   -3.043846    2.745247
H       3.440719   -2.164014    2.342882
H       1.865013   -0.911097    4.048953
H       0.869265    0.968872    2.814981
