17

C      -0.002932    1.519278    0.006256
C       0.013281    0.020417    0.014229
C      -0.021167   -0.804772   -1.084440
N      -0.015009   -2.114921   -0.651590
C       0.049698   -3.276356   -1.504876
C       1.421270   -3.646029   -1.898968
N       2.492774   -3.941128   -2.212738
C       0.042677   -2.130978    0.723621
C       0.054265   -0.831375    1.161518
H       0.885424    1.934321    0.495984
H      -0.029249    1.909195   -1.015308
H      -0.875976    1.918313    0.535611
H      -0.050295   -0.574168   -2.138212
H      -0.407147   -4.127966   -0.991123
H      -0.536768   -3.097514   -2.412022
H       0.068987   -3.065967    1.260972
H       0.075034   -0.514399    2.193577
