15

N      -0.047272    1.332134    0.044201
C       0.034664   -0.036277    0.030141
O       1.101549   -0.623049    0.021617
C      -1.273210   -0.745043    0.056378
C      -1.404095   -2.069854    0.009589
C      -2.850770   -2.445800    0.060712
O      -3.559604   -1.209658    0.138704
C      -2.645714   -0.119329    0.149701
H       0.813077    1.842490   -0.075560
H      -0.909680    1.817566   -0.133529
H      -0.585154   -2.773878   -0.053289
H      -3.170106   -3.006177   -0.832207
H      -3.088373   -3.072388    0.935128
H      -2.774816    0.468903    1.072446
H      -2.863972    0.551915   -0.698381
