19

C      -0.315851    1.518277    0.149242
C      -0.080107    0.012340   -0.008258
C       0.855563   -0.517955    1.061743
O       0.320854   -0.387499    2.401010
C       0.428904   -1.796282    2.655024
C       0.978107   -2.069606    1.223495
O       0.087462   -2.759269    0.366067
C       2.322545   -2.620160    1.150498
C       3.420435   -3.107137    1.089428
H       0.617749    2.081718    0.041732
H      -1.017335    1.884846   -0.605825
H      -0.729888    1.739947    1.136876
H      -1.027309   -0.531572    0.045170
H       0.357846   -0.209587   -0.988990
H       1.835899   -0.027845    0.994387
H       1.116035   -2.022051    3.478208
H      -0.544483   -2.268523    2.832106
H       0.346703   -3.686305    0.352176
H       4.395203   -3.525985    1.034041
