17

C      -0.012089    1.522910    0.061480
C       0.028647    0.005004   -0.019894
C       0.762298   -0.518925   -1.261826
C       1.044958   -1.992100   -1.125829
C       0.959924   -2.608838    0.049835
C       0.625404   -1.862895    1.311980
O       0.674997   -0.458563    1.162119
H       1.003837    1.925660    0.121620
H      -0.501397    1.943631   -0.822392
H      -0.560526    1.844328    0.950899
H      -1.002923   -0.388677   -0.039881
H       0.152804   -0.328857   -2.154856
H       1.698173    0.040397   -1.405200
H       1.313383   -2.544259   -2.022620
H       1.129301   -3.678224    0.144438
H      -0.368685   -2.179492    1.681614
H       1.344388   -2.108930    2.103215
