17

C      -0.014708    1.500042   -0.020915
N       1.307869    2.154263   -0.052209
C       2.246581    1.442069   -0.829897
C       2.077246    0.093329   -1.114723
N       3.165120   -0.305383   -1.859793
C       4.008800    0.759787   -2.042281
C       3.472143    1.861767   -1.404833
C       1.027270   -0.684590   -0.512422
C       0.030524   -0.012826    0.091234
H      -0.590002    1.940016    0.798365
H      -0.536917    1.774777   -0.952400
H       1.658385    2.341827    0.882362
H       3.283987   -1.212838   -2.274951
H       4.906215    0.660164   -2.631501
H       3.904619    2.849679   -1.369698
H       1.086609   -1.768949   -0.491596
H      -0.757696   -0.527530    0.630131
