16

C       0.032982    1.320874    0.143197
O      -0.047888   -0.010074   -0.341805
C      -1.263665   -0.621835   -0.114424
C      -1.398537   -2.022981   -0.705710
O      -0.492819   -2.887636   -0.016602
C      -1.738273   -2.610547    0.602217
C      -1.592142   -1.257844    1.329239
C      -0.569982   -1.178549    2.355852
N       0.235576   -1.094712    3.180827
H       1.017476    1.698968   -0.137039
H      -0.741282    1.957018   -0.311140
H      -0.064988    1.359973    1.235234
H      -2.110452    0.018234   -0.406049
H      -1.691265   -2.303885   -1.709651
H      -2.384784   -3.438481    0.864092
H      -2.540652   -0.876803    1.715794
