25

C      -0.322019    1.524013   -0.427234
C      -0.154801    0.152021    0.238044
C      -1.398749   -0.704701    0.112162
C      -1.668350   -1.542721   -1.117841
C      -1.420928   -2.218261    0.213916
C      -0.124725   -2.993036    0.389256
C      -2.565302   -2.851511    0.963453
C      -4.016224   -2.652073    0.612446
C      -3.361050   -3.990000    0.370169
H       0.583014    2.130725   -0.321815
H      -0.535974    1.418008   -1.495987
H      -1.151583    2.081913    0.021136
H       0.705459   -0.359974   -0.206992
H       0.089814    0.290701    1.299782
H      -2.285601   -0.231953    0.531245
H      -2.662760   -1.539010   -1.550980
H      -0.874537   -1.616626   -1.855850
H       0.702046   -2.558059   -0.177553
H       0.175613   -3.028950    1.443500
H      -0.252367   -4.026752    0.048998
H      -2.366077   -2.940622    2.030222
H      -4.725898   -2.565273    1.428063
H      -4.271217   -2.050639   -0.252961
H      -3.150311   -4.257983   -0.660045
H      -3.633888   -4.826935    1.003524
