20

C       0.164303    1.539224    0.069556
C       0.030604    0.019289   -0.037370
C       0.538789   -0.489402   -1.392170
C       0.272604   -1.977551   -1.624752
C       0.858072   -2.878204   -0.544238
O       0.169123   -2.791478    0.713867
C       0.527943   -1.833911    1.612355
O       0.619281   -2.091340    2.786443
N       0.770413   -0.580294    1.087922
H       1.213644    1.842817   -0.014459
H      -0.396918    2.029383   -0.729967
H      -0.224488    1.904338    1.025843
H      -1.034454   -0.242570    0.049785
H       0.054611    0.092154   -2.185222
H       1.615488   -0.285934   -1.455764
H      -0.806746   -2.165327   -1.682582
H       0.698538   -2.282182   -2.588461
H       0.759087   -3.927726   -0.833232
H       1.923167   -2.665872   -0.391805
H       0.979963    0.063871    1.837532
