19

O       0.022902    0.171563   -0.675450
C      -0.005640    1.260894   -0.174569
C      -1.112078    2.128420    0.468541
C      -0.031499    3.205032    0.713643
C      -0.195612    4.688508    0.575041
C       0.108860    4.075375    1.925934
C       1.031542    2.319850    0.072283
C       2.467668    2.053917    0.466471
C       2.166910    2.659582   -0.867971
H      -1.913850    2.404460   -0.223336
H      -1.555949    1.683731    1.364621
H       0.592682    5.248513    0.081328
H      -1.192890    5.079731    0.400823
H      -0.681625    4.050173    2.669216
H       1.101672    4.223532    2.339623
H       2.891089    2.689335    1.237650
H       2.774465    1.014036    0.507185
H       2.265026    2.039935   -1.753152
H       2.382956    3.712622   -1.016936
