21

O       0.019694    1.404866   -0.198108
C       0.022379    0.010278    0.015650
C       0.213734   -0.545763    1.464634
C      -1.045940   -1.448232    1.278791
C      -2.329824   -0.911471    1.961696
C      -2.605441   -0.032560    0.709415
C      -3.495742   -0.689504   -0.389880
C      -2.223593   -1.100621   -1.197637
C      -1.354335   -0.629913   -0.027824
H       0.929055    1.718655   -0.172394
H       0.708171   -0.494722   -0.683628
H       1.154848   -1.067701    1.653035
H       0.078322    0.228409    2.225521
H      -0.857918   -2.523591    1.273025
H      -3.103450   -1.663794    2.147408
H      -2.152595   -0.370010    2.896355
H      -2.733604    1.040720    0.850967
H      -4.095432   -1.528948   -0.026185
H      -4.160341    0.002078   -0.912334
H      -2.131913   -2.150781   -1.492172
H      -2.082332   -0.481537   -2.089376
