17

O       0.006325    1.317798   -0.799851
C       0.059777    0.251205    0.130002
C      -1.295301   -0.383654    0.312288
O      -1.735883   -1.192301   -0.804095
C      -1.493517   -1.828003    0.438163
C      -0.468156   -2.963463    0.620079
C      -1.525187   -3.674813    1.492229
O      -1.512347   -4.663999    2.161503
C      -2.586558   -2.592428    1.205123
H      -0.334108    0.952003   -1.624301
H       0.786865   -0.516824   -0.173661
H       0.401273    0.684160    1.076827
H      -2.069566    0.280186    0.700218
H      -0.245850   -3.501157   -0.307632
H       0.472495   -2.728243    1.125382
H      -3.019843   -2.110472    2.085799
H      -3.397681   -2.948893    0.561235
