14

O      -0.205659    0.101354    0.351370
C       0.020155    1.165989   -0.164010
C       1.247884    1.997891    0.014634
C       1.503246    2.863408    1.216335
C       0.793517    2.595523    2.544737
N       1.213838    1.242550    2.942298
C       1.971911    0.800486    2.027531
N       2.346848    1.679933    0.948878
H      -0.699074    1.625762   -0.879837
H       1.596251    2.404315   -0.935321
H       1.959362    3.832753    1.042025
H       1.106813    3.323764    3.300955
H      -0.300191    2.638043    2.492274
H       2.414601   -0.189085    2.039367
