18

C       0.175720    1.437333    0.351670
C      -0.053004   -0.010557   -0.012358
C       0.636688   -0.699282   -1.173446
C       1.631581   -0.017565   -2.083384
N       0.964892   -1.025981    0.197547
C       2.196656   -0.954390    0.808775
O       3.235173   -1.310215    0.286582
C       2.137792   -0.505799    2.193475
C       2.133972   -0.134618    3.337599
H       1.180548    1.778454    0.093463
H      -0.548608    2.068823   -0.173251
H       0.039778    1.588607    1.426255
H      -1.057192   -0.365122    0.219899
H       0.058333   -1.481092   -1.665917
H       2.155826    0.803709   -1.591782
H       2.387748   -0.733034   -2.415877
H       1.114903    0.377740   -2.963949
H       2.142986    0.188542    4.349944
