17

O       0.317466    1.186302    0.633828
C      -0.062318   -0.058552    0.115271
C      -1.508751   -0.222166   -0.345746
C      -1.892819    0.315258   -1.711851
C      -1.444075   -1.111690   -1.546079
O      -0.098321   -1.443911   -1.847909
C       0.742718   -0.547798   -1.137334
C       1.213112    0.545321   -2.092054
O       1.573397    1.655327   -1.774866
H       0.705888    1.715749   -0.077672
H       0.097609   -0.790479    0.916960
H      -2.268269   -0.330159    0.418677
H      -2.949755    0.479268   -1.892517
H      -1.252263    1.035161   -2.211013
H      -2.108555   -1.943831   -1.741150
H       1.645821   -1.095921   -0.836524
H       1.208416    0.217050   -3.153504
