18

N      -0.211388   -1.091543   -0.450732
C      -0.100617    0.035473   -0.221550
C      -0.004814    1.477019    0.026703
C      -0.733079    1.888632    1.331514
N       0.106159    1.603638    2.478392
C       1.245148    2.505135    2.571810
C       2.067916    2.454278    1.299369
N       2.410706    1.125974    0.789090
C       1.457508    1.949293    0.036830
H      -0.515804    1.974641   -0.806172
H      -0.986175    2.962400    1.236673
H      -1.670414    1.334189    1.420345
H      -0.430531    1.609837    3.335504
H       0.945814    3.560454    2.729806
H       1.865610    2.207304    3.424485
H       2.807575    3.247429    1.209751
H       3.318635    1.131622    0.333678
H       1.796738    2.383805   -0.899588
