19

C       0.008017    1.493636   -0.206260
C       0.078889   -0.012758    0.120994
C       0.779723   -0.248307    1.383306
C       1.340679   -0.435240    2.429747
C      -1.325162   -0.615193    0.151282
C      -1.962898   -1.150224   -1.085321
C      -1.593440   -2.113079    0.041754
C      -0.501090   -3.087047   -0.183217
O      -0.482672   -4.202262    0.275830
H       1.010142    1.926695   -0.253151
H      -0.487416    1.648092   -1.169280
H      -0.556584    2.027979    0.563602
H       0.650881   -0.498389   -0.680039
H       1.842776   -0.612361    3.348620
H      -1.982826   -0.114805    0.857072
H      -3.017267   -0.978455   -1.267587
H      -1.354754   -1.200139   -1.984335
H      -2.399896   -2.506499    0.650698
H       0.322213   -2.728612   -0.843238
