15

C      -0.008316    1.439731   -0.039180
N       0.009733   -0.017977   -0.006996
N      -0.055491   -0.661160   -1.191938
C      -0.041225   -1.948471   -1.203207
C       0.042104   -2.787751   -0.006477
N       0.062403   -4.062149    0.073490
N       0.103953   -2.026465    1.157293
C       0.093451   -0.650231    1.233794
O       0.150647   -0.030734    2.273569
H       0.905240    1.844087    0.403867
H      -0.082645    1.733352   -1.084693
H      -0.862074    1.823987    0.524352
H      -0.095267   -2.426453   -2.175328
H       0.010619   -4.478698   -0.854613
H       0.164208   -2.518621    2.038401
