11

C       0.071148    1.272101    0.008769
N       1.312195    1.769739   -0.000683
N       2.038105    0.644581   -0.014015
N       3.367856    0.605184   -0.027288
N       3.882762   -0.577230   -0.038967
C       3.065978   -1.677861   -0.037096
N       1.753834   -1.699121   -0.024345
C       1.199472   -0.481969   -0.012113
N      -0.057492   -0.077086    0.002578
H      -0.781201    1.935813    0.020849
H       3.596085   -2.623985   -0.047601
