19

C      -0.058461    1.337679    0.214070
N      -0.066277   -0.102351    0.034981
C      -1.262688   -0.783165   -0.043116
O      -2.346975   -0.283607    0.201486
N      -1.132694   -2.104143   -0.449327
C      -0.039065   -3.057619   -0.126623
C      -1.098959   -4.128618    0.156212
C      -2.064332   -3.636472    1.208895
C      -2.166000   -3.096720   -0.186326
H       0.799505    1.639063    0.822551
H      -0.022799    1.882377   -0.738917
H      -0.980350    1.610707    0.728097
H       0.725309   -0.511175   -0.435302
H       0.591713   -3.274194   -0.995864
H       0.593288   -2.760438    0.718956
H      -1.030582   -5.163056   -0.148884
H      -2.836493   -4.347414    1.485694
H      -1.726707   -2.993952    2.017593
H      -3.049173   -3.163117   -0.807807
