14

N       0.085954   -1.093878   -0.095613
C       0.049456    0.061416   -0.026759
C      -0.023374    1.478818    0.073951
C      -1.108919    2.360217    0.686893
N      -0.538135    3.536953   -0.070197
C       0.813621    3.701250    0.603724
C       1.243891    2.381917   -0.011112
C       0.146139    2.523615   -1.009950
H      -2.099826    2.116852    0.299012
H      -1.147545    2.485483    1.773356
H       1.335671    4.552078    0.159952
H       0.772812    3.812250    1.691718
H       2.221706    1.935562   -0.139140
H       0.066129    2.479340   -2.086289
