17

C       0.005752    1.786921   -0.027050
C       1.462817    1.458665    0.086240
O       1.042370    0.258369    0.932580
C      -0.006997    0.220590   -0.124750
C      -1.346627   -0.203904   -0.728268
O      -1.101780    0.475307   -2.015986
C       0.303745    0.394042   -2.307889
C       1.676464    0.918258   -1.373431
C       0.935529   -0.339930   -1.258509
H      -0.450309    2.046296    0.930604
H      -0.347658    2.410063   -0.843917
H       2.233171    2.051800    0.577342
H      -1.488993   -1.277491   -0.887863
H      -2.236579    0.250616   -0.292658
H       0.488612    0.350322   -3.374792
H       2.598820    1.033950   -1.933880
H       1.274043   -1.368075   -1.161097
