22

C      -0.039728    1.756019    0.565459
C      -0.418568    0.276169    0.625403
O      -0.302813   -0.355477   -0.658227
C       0.855223   -1.200550   -0.728072
C       1.967178   -0.570610   -1.566999
C       1.277286   -1.447378    0.710673
C       0.476010   -0.518456    1.562072
N       0.302423   -1.959949    1.661949
C      -0.924165   -2.620750    1.228548
H       1.026968    1.886213    0.357539
H      -0.607428    2.252178   -0.226061
H      -0.267682    2.251447    1.515459
H      -1.476903    0.194180    0.910477
H       0.526046   -2.127861   -1.217765
H       2.379094    0.318600   -1.079506
H       2.782668   -1.284622   -1.725353
H       1.573391   -0.276221   -2.543333
H       2.317466   -1.696164    0.905994
H       0.870610   -0.018816    2.443360
H      -1.389803   -2.198173    0.329233
H      -0.699371   -3.675791    1.042678
H      -1.646921   -2.577262    2.049476
