17

O       0.977563    0.615835   -0.976207
C       0.400694    1.500511   -0.408370
C      -1.002722    1.640780    0.205520
C      -0.425778    2.780572    1.095396
C       0.838535    2.869592    0.184079
N       2.117523    3.103824    0.810412
C       2.866746    1.967276    1.347076
C       3.322814    2.660035    0.109747
H      -1.731604    1.990775   -0.532447
H      -1.402100    0.750073    0.695350
H      -1.019556    3.690107    1.183579
H      -0.160585    2.425237    2.093550
H       0.690035    3.637977   -0.586881
H       3.362823    2.152157    2.295537
H       2.463036    0.965765    1.224704
H       3.199291    2.115431   -0.822043
H       4.159813    3.352344    0.141818
