20

O      -0.076949    1.518174   -0.198706
C       0.012466    0.114273   -0.103402
C      -1.357210   -0.559786    0.043945
C      -1.330675   -2.102795    0.063875
C      -2.627675   -2.498219    0.795795
C      -2.772222   -1.438578    1.906885
C      -2.069631   -0.223735    1.344843
N      -2.006968    0.944602    1.848547
O      -2.703363    1.027012    3.066292
H      -0.584792    1.805567    0.574316
H       0.494186   -0.235562   -1.023660
H       0.652480   -0.198531    0.739889
H      -1.987270   -0.218553   -0.790080
H      -1.253102   -2.534140   -0.937225
H      -0.459107   -2.445986    0.637035
H      -3.476262   -2.430503    0.105426
H      -2.606156   -3.519691    1.183354
H      -3.804725   -1.214198    2.188067
H      -2.264579   -1.746062    2.830284
H      -2.590779    1.952416    3.308555
