18

O      -0.101955    1.315362   -0.491543
C       0.069691   -0.044730   -0.169399
C      -1.269932   -0.635520    0.272730
N      -2.286759   -0.416225   -0.798996
C      -2.286133   -1.870962   -1.136131
C      -1.434084   -2.193833    0.122355
O      -0.303293   -3.018551    0.035897
C      -2.269888   -2.742782    1.262648
O      -3.426353   -2.456938    1.441994
H      -0.886064    1.332895   -1.061021
H       0.468257   -0.605714   -1.034649
H       0.809807   -0.110375    0.633817
H      -1.550394   -0.218274    1.244622
H      -3.179684   -0.161736   -0.390677
H      -3.273206   -2.338133   -1.163139
H      -1.761782   -2.075266   -2.076333
H       0.249048   -2.719353   -0.692952
H      -1.709885   -3.421494    1.940850
