21

C      -0.135610    1.607601    0.038588
C       0.080648    0.098137   -0.000551
C       0.787023   -0.497465   -1.219773
C       2.186375    0.077098   -1.601241
C       2.787957   -1.349777   -1.485847
C       1.496614   -1.830727   -0.770094
C       1.529576   -1.781983    0.767900
C       0.903732   -0.441810    1.179060
O       1.037560    0.099167    2.246774
H       0.797603    2.146076   -0.152319
H      -0.867752    1.923540   -0.710314
H      -0.491636    1.909052    1.027221
H      -0.897266   -0.403836    0.093560
H       0.129095   -0.605788   -2.084162
H       2.265795    0.570789   -2.572068
H       2.580496    0.762165   -0.844030
H       2.915116   -1.827079   -2.461063
H       3.724699   -1.451993   -0.930119
H       1.074824   -2.767232   -1.139291
H       0.920892   -2.578690    1.212662
H       2.529286   -1.876665    1.201607
