20

C      -0.532580    1.284115   -0.367964
C       0.308370    0.075148    0.081110
C       1.098312   -0.506567   -0.999745
C       1.742656   -0.963066   -1.909672
C       2.518459   -1.549849   -3.000453
C       2.044030   -2.940896   -3.397446
C       0.917998   -3.105039   -4.381525
C       2.330250   -3.463477   -4.781098
H       0.108541    2.079396   -0.758042
H      -1.231808    0.998040   -1.158447
H      -1.106939    1.685099    0.472754
H       0.974118    0.377849    0.899936
H      -0.353572   -0.692503    0.502827
H       2.473282   -0.892798   -3.879900
H       3.578614   -1.592822   -2.714805
H       2.083026   -3.664383   -2.588504
H       0.206258   -3.907774   -4.224605
H       0.483680   -2.205843   -4.806512
H       2.842288   -2.805189   -5.475901
H       2.586366   -4.510965   -4.895674
