20

C       0.087374    1.591032   -0.063953
C       0.054318    0.061396   -0.007121
O       0.758042   -0.441780    1.119609
C      -1.362418   -0.514508    0.057083
C      -1.475388   -2.064722    0.168395
C      -2.197298   -1.799954    1.505528
O      -2.714184   -2.458249    2.371044
N      -2.055792   -0.442990    1.351311
C      -2.459460    0.636984    2.213160
H       1.119499    1.948893   -0.151026
H      -0.463766    1.962728   -0.934054
H      -0.346580    2.030658    0.837882
H       0.497143   -0.327183   -0.940873
H       1.669268   -0.138337    1.066323
H      -1.952188   -0.085912   -0.764236
H      -2.084773   -2.553982   -0.593250
H      -0.519494   -2.577116    0.280816
H      -3.096357    0.209237    2.991873
H      -1.601417    1.121941    2.693261
H      -3.032302    1.393672    1.663930
