16

O      -0.126139   -0.016909    0.016600
C      -0.032329    1.191454    0.020038
N       1.149128    1.881102    0.004596
C       1.274203    3.352493    0.001468
C       2.807096    3.602526    0.008733
C       3.400239    2.197274   -0.023000
C       2.407470    1.289887   -0.019956
C       4.784209    1.945104   -0.044593
C       5.979470    1.784253   -0.062803
H      -0.904076    1.873190    0.036802
H       0.794936    3.769215   -0.889206
H       0.781661    3.775956    0.881179
H       3.127941    4.192321   -0.855342
H       3.127737    4.148205    0.901874
H       2.464181    0.212492   -0.032363
H       7.028549    1.623050   -0.078817
