17

C      -0.171247   -1.272230   -0.208022
C      -0.083824   -0.079334   -0.079179
C       0.009680    1.360559    0.071387
C      -0.227086    2.029259    1.436021
C       1.015220    1.949447    2.306986
C       2.100232    0.940442    1.950778
O       2.445120    1.226864    0.586403
C       1.434071    2.060926    0.069550
C       0.943802    2.975556    1.217338
H      -0.239879   -2.325605   -0.322382
H      -0.617459    1.855209   -0.679042
H      -1.200226    2.241539    1.862430
H       0.898929    2.259754    3.338574
H       2.994279    1.073217    2.571193
H       1.760285   -0.097590    2.037413
H       1.771320    2.481970   -0.875894
H       1.034026    4.047382    1.321428
