17

O       0.113639    1.331669   -0.108107
C       0.099419   -0.066973    0.008151
C       0.244470   -0.536915    1.487873
C      -1.274952   -0.716681    1.534636
C      -2.181196   -1.336097    2.518863
N      -2.208531    0.125392    2.284830
C      -1.376867   -0.611011    0.005365
O      -2.338951    0.299639   -0.458056
H      -0.740923    1.560572   -0.506660
H       0.788312   -0.531446   -0.707885
H       0.789962   -1.479685    1.591020
H       0.675025    0.209903    2.159545
H      -3.070878   -1.866978    2.190612
H      -1.754543   -1.697607    3.451316
H      -1.733898    0.627438    3.030343
H      -1.484438   -1.571193   -0.510347
H      -2.748583    0.655264    0.351477
