15

O       0.542605    0.550978   -0.866517
C      -0.155621    0.319872    0.332518
C      -1.477246   -0.369078    0.123228
C      -1.951506   -0.883864   -1.015818
C      -3.270139   -1.507052   -1.048276
N      -3.758161   -1.993281   -2.122993
N      -3.969488   -1.536706    0.190526
C      -3.422503   -1.025203    1.211742
O      -2.206352   -0.420225    1.288493
H       0.040444    1.186358   -1.388142
H       0.488860   -0.315274    0.952340
H      -0.331781    1.241811    0.909404
H      -1.355105   -0.850365   -1.916983
H      -4.683205   -2.378651   -1.920292
H      -3.904764   -1.019226    2.185282
