17

C      -0.340245    1.555705   -0.192245
C      -0.067933    0.094006   -0.000938
C       0.341699   -0.798437   -0.965545
N       0.467337   -2.037510   -0.386146
C       0.159991   -1.953258    0.948183
C       0.159859   -3.158523    1.846004
C       1.240685   -4.097465    1.533078
N       2.078895   -4.835821    1.236832
C      -0.178079   -0.646815    1.214911
H       0.293751    2.174477    0.453339
H      -0.152819    1.858997   -1.226382
H      -1.380441    1.810333    0.042511
H       0.561311   -0.649656   -2.010960
H       0.824235   -2.861254   -0.840795
H       0.261732   -2.834659    2.886567
H      -0.786936   -3.714355    1.786018
H      -0.480709   -0.259784    2.177167
