19

C       0.269630    0.912825   -2.047415
C       0.238175   -0.332481   -1.184538
C      -1.144041   -0.694264   -0.663433
O      -1.604762    0.261672    0.275516
C       1.244608   -1.417220   -1.366013
N       1.264080   -0.593913   -0.153322
C       2.380473    0.330292    0.005759
C       3.458890   -0.306227    0.772524
N       4.319995   -0.798573    1.363815
H       1.277269    1.198165   -2.356921
H      -0.313454    0.742737   -2.958453
H      -0.189188    1.750033   -1.512831
H      -1.870360   -0.696212   -1.483458
H      -1.117784   -1.702983   -0.228307
H      -0.998634    0.214030    1.024049
H       0.979724   -2.461434   -1.223562
H       2.031117   -1.247267   -2.100112
H       2.815173    0.690588   -0.939523
H       2.038904    1.213157    0.558369
