20

C      -0.060751    1.669611   -0.091149
C       0.034363    0.152007   -0.043270
C       1.188468   -0.624183   -0.762898
C       2.147998   -0.165762    0.372424
C       0.829112   -0.594756    1.085307
C       0.849163   -1.846246    0.165256
C      -0.416730   -2.660618   -0.040507
N      -0.294791   -3.634515   -0.995453
O      -1.440671   -2.508823    0.599875
H       0.888865    2.183037    0.078387
H      -0.441056    1.994082   -1.066415
H      -0.768505    2.025105    0.665802
H      -0.955264   -0.274813   -0.212818
H       1.400381   -0.661168   -1.834189
H       3.025075   -0.794533    0.550829
H       2.417555    0.889217    0.406646
H       0.618188   -0.589111    2.154758
H       1.698829   -2.521142    0.322167
H       0.499930   -3.676407   -1.609418
H      -1.115646   -4.166463   -1.235279
