11

C      -0.010580    1.511617    0.042477
C      -0.007333    0.026135   -0.019614
N      -0.086251   -0.647670   -1.119783
O      -0.049656   -2.012271   -0.730429
C       0.053035   -2.116307    0.631331
O       0.105474   -3.134802    1.257494
N       0.078957   -0.799064    1.071958
H       0.910700    1.885741    0.500828
H      -0.089700    1.908825   -0.970120
H      -0.855866    1.876273    0.635197
H       0.150211   -0.541197    2.040786
