16

N      -0.121344    1.332526   -0.176936
C       0.037869   -0.042757   -0.012290
O       1.131690   -0.550585    0.151897
C      -1.210823   -0.811648   -0.005312
C      -1.386848   -2.175230   -0.155181
C      -2.777269   -2.444335   -0.079627
N      -3.387251   -3.694632   -0.274989
C      -3.414092   -1.231540    0.127246
N      -2.456770   -0.244391    0.137208
H       0.757262    1.813593   -0.311851
H      -0.854137    1.636644   -0.801608
H      -0.591523   -2.882683   -0.331174
H      -2.803128   -4.459467    0.037115
H      -4.291483   -3.766939    0.173141
H      -4.459613   -1.000209    0.254521
H      -2.609250    0.691530    0.472068
