15

O       0.236234    1.144545   -0.655801
C       0.065475   -0.070689    0.026807
C       0.356169   -0.065225    1.530186
C      -0.571218   -1.151662    2.058097
O      -0.515751   -1.756127    3.085416
O      -1.549333   -1.390697    1.129288
C      -1.431135   -0.485228    0.009543
C      -2.352854    0.636140    0.152643
C      -3.129368    1.543581    0.275768
H       1.179027    1.308974   -0.754086
H       0.632040   -0.881535   -0.453717
H       1.389202   -0.272159    1.811523
H       0.058150    0.897310    1.960752
H      -1.677726   -1.058792   -0.887462
H      -3.814123    2.348768    0.382766
