21

C      -0.007741    1.599113    0.011817
C       0.010297    0.069503    0.020105
C      -1.410054   -0.532170   -0.001625
C      -1.420832   -1.990853    0.009378
C      -1.402284   -3.195782    0.038512
C      -1.377283   -4.654918    0.014805
C      -2.800704   -5.262262    0.001534
C      -0.630590   -5.127659   -1.235821
O       0.246903   -5.947620   -1.232333
H       1.007807    2.005563    0.026801
H      -0.508319    1.986361   -0.882705
H      -0.537930    1.995206    0.885140
H       0.567159   -0.306750   -0.845195
H       0.536127   -0.297769    0.908327
H      -1.976217   -0.157032    0.861834
H      -1.944449   -0.168817   -0.889897
H      -0.825141   -5.046439    0.876529
H      -2.747808   -6.354386    0.023842
H      -3.362059   -4.917114    0.872848
H      -3.345688   -4.953873   -0.895712
H      -0.988793   -4.651264   -2.176276
