19

C       0.001910    1.568460    0.150225
C       1.284966    0.797812   -0.036088
C       2.328992    0.700637    1.069657
C       2.784484   -0.724579    1.300901
C       1.983562   -1.722836    1.681302
C       0.532347   -1.629713    1.979646
O       0.007906   -0.394965    2.511238
C      -0.423460   -0.789446    1.212952
C      -0.032009    0.058027    0.046422
H      -0.175918    1.991573    1.133381
H      -0.392808    2.151461   -0.674482
H       1.711093    0.822897   -1.035170
H       3.185095    1.329372    0.804794
H       1.918748    1.099556    2.000714
H       3.835244   -0.949188    1.134783
H       2.403812   -2.717708    1.806306
H       0.117150   -2.508044    2.474756
H      -1.459269   -1.136035    1.183930
H      -0.404104   -0.344378   -0.892426
