17

O       0.106668    1.320483    0.235506
C       0.080869   -0.052917    0.033662
C      -1.307541   -0.700077   -0.016760
N      -2.382669    0.267691    0.038589
C      -2.977857    0.530171   -1.275184
C      -1.882540    1.055444   -2.197167
O      -0.828373    0.116040   -2.375192
C      -0.449163   -0.634696   -1.262218
H      -0.814229    1.552550    0.455711
H       0.892164   -0.582391    0.527931
H      -1.491015   -1.663293    0.452294
H      -3.076509    0.005431    0.724713
H      -3.434501   -0.367394   -1.723567
H      -3.755184    1.293737   -1.168854
H      -2.284838    1.244084   -3.197040
H      -1.486127    1.997100   -1.796212
H       0.004275   -1.565744   -1.589847
