20

C       0.481874    1.451936    0.332361
C      -0.067978    0.081415   -0.018350
O       0.923808   -0.624654   -0.755640
C       0.548231   -1.930168   -1.131922
C      -0.407473   -1.906485   -2.323323
O      -1.177599   -2.790503   -2.590471
C       1.798384   -2.696505   -1.553149
C       2.892749   -2.005104   -2.279957
N       3.070357   -2.437037   -0.879635
H       1.388926    1.359905    0.936448
H       0.727279    2.012143   -0.574144
H      -0.258101    2.020891    0.902450
H      -0.323832   -0.484728    0.890793
H      -0.990290    0.174739   -0.612677
H       0.059131   -2.460558   -0.299954
H      -0.292027   -0.998784   -2.959902
H       1.594087   -3.742428   -1.766192
H       3.484862   -2.550248   -3.008779
H       2.778091   -0.943102   -2.472273
H       2.948020   -1.622761   -0.280079
