21

C      -0.088105    1.581012   -0.124045
C       0.031092    0.054113   -0.030125
C       0.737493   -0.513008   -1.262882
O      -0.033378   -0.190584   -2.411419
C       0.757979   -0.412146    1.241079
C      -0.008124   -0.107284    2.545099
O      -1.328929   -0.644675    2.531008
C       0.747822   -0.570624    3.713058
C       1.365360   -0.998554    4.651829
H       0.898449    2.056691   -0.054404
H      -0.531845    1.862435   -1.081254
H      -0.716660    1.991011    0.671669
H      -0.978764   -0.372507   -0.014571
H       1.753572   -0.088868   -1.335130
H       0.845296   -1.604676   -1.156026
H       0.451447   -0.476817   -3.190485
H       0.928597   -1.496474    1.199477
H       1.749309    0.054384    1.309128
H      -0.154656    0.975348    2.629732
H      -1.253553   -1.599813    2.636657
H       1.905456   -1.356934    5.493216
