19

C       0.050235    1.552431   -0.094823
C       1.613533    1.388943    0.008751
C       1.314923    0.054707    0.651658
C       1.600564   -0.619805    1.760507
C       0.444960   -1.483164    2.252933
C      -0.770195   -0.541412    2.487478
C      -0.992483   -0.804512    0.979786
O      -0.278177   -2.076601    1.132557
C      -0.076683   -0.001354    0.051559
H      -0.347336    2.081795    0.774655
H      -0.345344    2.002504   -1.007962
H       2.060994    1.300214   -0.987361
H       2.176082    2.125934    0.586919
H       2.463725   -0.440559    2.393886
H       0.712849   -2.224404    3.008314
H      -1.554649   -1.019076    3.077461
H      -0.580111    0.473693    2.841001
H      -2.016513   -0.937814    0.620815
H      -0.089836   -0.469416   -0.939714
