19

C      -0.002027    1.566688    0.026019
C       0.082414    0.045932    0.028435
O      -1.223631   -0.517122    0.113601
C       0.805828   -0.694123   -1.094748
C       2.289650   -0.796435   -0.725004
C       1.275863   -1.771825   -0.155014
C       1.070685   -0.690581    0.988752
C       2.485314   -0.146179    0.645080
O       3.533909   -0.719688    1.396881
H       0.965797    2.037319   -0.161680
H      -0.698734    1.892756   -0.752372
H      -0.373940    1.939138    0.989265
H      -1.641626   -0.161182    0.905299
H       0.470924   -0.807803   -2.118586
H       3.043591   -0.976258   -1.482074
H       1.178545   -2.845360   -0.205062
H       0.794393   -0.876706    2.026133
H       2.647301    0.933553    0.710352
H       3.474695   -1.676804    1.287753
