23

C      -0.074264    1.376613   -0.208598
O      -0.004029   -0.018588   -0.043333
C       0.611510   -0.672332   -1.132362
C       0.624251   -2.193143   -0.883457
C       1.398828   -2.503672    0.410539
C      -0.821402   -2.706767   -0.788434
C       1.380586   -2.810931   -2.054823
C       1.062775   -4.103842   -2.672862
O       0.725156   -2.876436   -3.325179
H       0.926487    1.828083   -0.301040
H      -0.657106    1.653734   -1.101205
H      -0.566115    1.787733    0.676472
H       0.070620   -0.455717   -2.068088
H       1.645300   -0.304397   -1.258443
H       0.929432   -2.003944    1.260451
H       1.417647   -3.580863    0.604469
H       2.435820   -2.153839    0.347529
H      -1.311240   -2.659455   -1.765352
H      -0.856024   -3.740747   -0.432010
H      -1.384991   -2.088035   -0.087202
H       2.419942   -2.479400   -2.126562
H       1.856132   -4.680336   -3.146971
H       0.217117   -4.687384   -2.316762
