11

O       0.073564    1.321219   -0.075593
C       0.062983   -0.010853   -0.058376
C      -0.011326   -0.730247   -1.267366
N      -0.021358   -2.043925   -1.240764
C       0.042502   -2.599559   -0.015060
N       0.113799   -1.951390    1.147245
N       0.123695   -0.626279    1.116460
C       0.034825   -4.037487    0.058260
N       0.028105   -5.191983    0.107606
H       0.127983    1.621080    0.845628
H      -0.060803   -0.221018   -2.225612
