18

C      -0.146650    1.259541    0.117739
N       0.126722   -0.165811   -0.040628
C       0.815043   -0.493206   -1.301088
C       1.564595   -0.489604   -0.008429
C       1.694389   -2.030572   -0.038265
C       0.907648   -2.035825   -1.399770
C      -0.245157   -2.865620   -0.764979
C       0.508557   -2.814158    0.584740
O       0.297768   -3.269740    1.668425
H       0.627524    1.911490   -0.320787
H      -1.103148    1.495539   -0.358505
H      -0.226385    1.490862    1.184090
H       0.823646    0.222275   -2.115212
H       2.274076    0.221550    0.397015
H       2.699174   -2.438506    0.071686
H       1.373398   -2.418520   -2.305710
H      -1.242738   -2.423839   -0.755936
H      -0.303196   -3.889317   -1.150012
