12

N      -0.007539    1.333347    0.128454
C      -0.007616   -0.029491    0.042551
N      -1.106882   -0.760699    0.029191
N      -0.594766   -2.035843    0.003774
C      -1.374689   -3.196158   -0.018351
O      -2.571066   -3.222575   -0.015143
C       0.770653   -1.974751   -0.006007
N       1.182306   -0.737949    0.016982
H       0.830178    1.780313   -0.208528
H      -0.870193    1.786444   -0.129578
H      -0.724635   -4.090479   -0.040454
H       1.392957   -2.857548   -0.030111
