16

C      -0.231998    1.531048    0.094924
C       0.092854    0.033968   -0.034581
C       0.769441   -0.513286    1.196401
N       2.008859   -0.080899    1.464921
C       2.589757   -0.559958    2.563868
C       1.950939   -1.468200    3.404353
N       0.717993   -1.908585    3.149705
C       0.140206   -1.427395    2.049224
H       0.679318    2.098561    0.301165
H      -0.676851    1.912714   -0.828629
H      -0.937317    1.712607    0.912340
H      -0.821501   -0.535625   -0.232191
H       0.760151   -0.116646   -0.890689
H       3.596938   -0.212369    2.781783
H       2.441849   -1.848351    4.296371
H      -0.864879   -1.780886    1.829668
