21

C       0.128503    1.446698   -0.445762
C      -0.058112    0.190020    0.424017
C      -1.402102   -0.373198    0.336676
C      -2.518711   -0.816303    0.242075
C      -3.863564   -1.382460    0.152962
C      -3.832670   -2.820791   -0.402736
C      -4.576375   -1.323863    1.528884
C      -6.046233   -1.664012    1.428412
O      -6.628136   -2.447850    2.132083
H       1.148185    1.830863   -0.347554
H      -0.054792    1.220413   -1.499643
H      -0.567228    2.234583   -0.144570
H       0.674979   -0.571622    0.128585
H       0.167466    0.432528    1.470526
H      -4.448343   -0.763814   -0.544374
H      -3.268069   -3.477399    0.265808
H      -4.846348   -3.223120   -0.499700
H      -3.356096   -2.844478   -1.385687
H      -4.099269   -1.990702    2.252161
H      -4.506939   -0.298147    1.915546
H      -6.587617   -1.104206    0.627255
