16

N       0.003202    0.941416   -0.811936
C      -0.186291   -0.216618   -0.117810
C       1.057047   -1.054717    0.003236
O       2.133193   -0.690274   -0.402559
N      -1.240133   -0.706786    0.425485
C      -2.481124    0.036425    0.358903
C      -3.270389   -0.370178   -0.911822
C      -4.551581    0.322184   -1.007541
N      -5.557164    0.888895   -1.063647
H       0.967011    1.183616   -0.991775
H      -0.662238    1.693343   -0.761825
H       0.883878   -2.021663    0.509464
H      -3.083681   -0.213984    1.236768
H      -2.352101    1.130396    0.366698
H      -2.678012   -0.148894   -1.806138
H      -3.438756   -1.451568   -0.898038
