17

C      -0.082077    1.568667   -0.095610
C       0.017320    0.054483   -0.022904
C       0.697556   -0.667000   -1.197153
O       2.046713   -0.192254   -1.267585
C       1.752550   -1.227746   -0.343039
C       1.146688   -0.573868    0.926297
N       2.007267    0.368071    1.617615
C       0.575535   -1.604343    1.807046
N       0.149997   -2.400839    2.530701
H       0.888037    2.004007   -0.338498
H      -0.804986    1.860533   -0.864938
H      -0.422842    1.990105    0.855479
H      -0.947626   -0.402772    0.210492
H       0.257057   -1.055755   -2.107358
H       2.316708   -2.151309   -0.398681
H       1.529527    0.755571    2.426240
H       2.838816   -0.101822    1.964624
