21

C       0.145762    1.590929    0.091308
C       0.038455    0.082673   -0.047647
C       0.677803   -0.623483   -1.271372
C       1.191352   -1.672491   -0.257132
C       2.648070   -2.141360   -0.391750
C       3.053932   -3.047418    0.680907
N       3.350995   -3.765314    1.536858
N       0.930115   -0.713162    0.826738
C       0.418400   -1.198062    2.093267
H       1.183810    1.915291   -0.028688
H      -0.469357    2.093887   -0.662884
H      -0.200990    1.920438    1.076733
H      -1.015244   -0.229749    0.061762
H       0.010092   -0.976607   -2.057288
H       1.486707   -0.036334   -1.715223
H       0.528845   -2.553199   -0.217934
H       2.783652   -2.654157   -1.351531
H       3.306551   -1.266559   -0.384246
H       1.164237   -1.832598    2.579908
H       0.213939   -0.350850    2.755906
H      -0.514598   -1.782290    1.984469
