15

C       0.003427    1.640741   -0.092085
C       0.032552    0.120962   -0.012348
C       0.696301   -0.669413   -1.153336
O       2.062293   -0.288089   -1.173532
C       1.675715   -1.351406   -0.252828
C       2.325882   -2.609211   -0.304453
C       2.863777   -3.684168   -0.282589
C       1.063220   -0.576237    0.932396
O       1.225314   -0.595032    2.111775
H       0.972757    2.024085   -0.419726
H      -0.763760    1.985793   -0.792254
H      -0.220441    2.065537    0.890823
H      -0.955284   -0.288113    0.237138
H       0.262354   -1.065569   -2.063709
H       3.342849   -4.632296   -0.272225
