18

O       0.362460    1.324462    0.991181
C       0.218258    0.064545    0.465935
C      -0.664621   -0.986502    1.200238
C      -1.323414   -0.554842    2.440628
O      -1.620774    0.592469    2.715361
C      -1.047670   -0.381448   -0.175012
N      -2.130624    0.542749   -0.232166
C      -2.492683    1.040147   -1.555536
C      -3.376179    0.081337   -0.833281
H      -0.451719    1.524149    1.488210
H       1.154882   -0.308985    0.063747
H      -0.346792   -2.023389    1.183635
H      -1.518756   -1.367485    3.171887
H      -0.962526   -1.104292   -0.992772
H      -2.742800    2.095393   -1.606974
H      -1.939460    0.658790   -2.412073
H      -3.414039   -0.940037   -1.208839
H      -4.285380    0.424160   -0.348415
