16

N      -0.084996    1.244588    0.599927
C      -0.008698    0.073071    0.096566
N       1.182580   -0.630817   -0.074338
C       1.493375   -1.792030   -0.783354
N       0.889662   -2.435758   -1.686788
C      -0.379499   -2.048935   -2.265069
C      -1.478638   -1.570534   -1.334709
O      -1.438370   -1.989316    0.024007
C      -1.296380   -0.589045   -0.253811
H       0.838309    1.637340    0.796457
H       1.964118   -0.237580    0.430334
H       2.478925   -2.157069   -0.484551
H      -0.215635   -1.271267   -3.027875
H      -0.762766   -2.921135   -2.807300
H      -2.473978   -1.603666   -1.784283
H      -2.140118    0.030888    0.038300
