21

C      -0.213855    1.621304    0.666399
C      -0.130260    0.162181    0.256777
C       1.086219   -0.317995   -0.579628
O       1.953680   -0.109095    0.599697
C       0.739037   -0.813732    1.115042
C       0.665099   -1.141922    2.572113
C       0.875283   -1.778297   -0.102377
C      -0.255861   -2.675109   -0.566038
O      -0.453665   -3.646647    0.457323
H       0.769096    1.993772    0.960726
H      -0.589280    2.237114   -0.158299
H      -0.903635    1.750993    1.507939
H      -1.104483   -0.226194   -0.052190
H       1.457020    0.047884   -1.538500
H       0.603715   -0.233021    3.178725
H      -0.216098   -1.761002    2.762640
H       1.551271   -1.706199    2.877628
H       1.817526   -2.330181   -0.060364
H      -1.179980   -2.111213   -0.754988
H       0.031342   -3.152225   -1.516634
H      -1.115888   -4.274134    0.152784
