10

C      -0.023215    1.509531   -0.019576
C      -0.001364    0.018291    0.036450
N      -0.087515   -0.727870   -1.033731
O      -0.034529   -2.024141   -0.600093
N       0.086181   -2.088809    0.758117
C       0.107911   -0.850753    1.163038
H       0.894481    1.929907    0.403720
H      -0.115775    1.843603   -1.054097
H      -0.864843    1.909770    0.554505
H       0.197841   -0.611549    2.211604
