18

N      -0.001206    1.425173    0.123498
C      -0.001170    0.020873    0.042589
C      -1.195586   -0.701697    0.090678
C      -1.168817   -2.094643    0.059020
C       0.027172   -2.799649   -0.001263
N       0.103786   -4.218499    0.013887
C       1.235892   -2.075614   -0.023089
N       2.435717   -2.799036   -0.107281
C       1.207789   -0.682822   -0.012117
H       0.792527    1.856213   -0.330571
H      -0.858761    1.844254   -0.209482
H      -2.144779   -0.177808    0.142399
H      -2.105415   -2.646251    0.076553
H      -0.815226   -4.643042   -0.009208
H       0.639990   -4.571097   -0.774019
H       2.391593   -3.661467    0.424499
H       3.249580   -2.259735    0.155542
H       2.146597   -0.134121   -0.026750
