19

C      -0.416770    1.525479   -0.813836
C       0.024622    0.087477   -0.574496
C      -1.009165   -0.937915   -1.024038
O       1.339197   -0.188601   -1.164058
C       1.973740   -0.473090    0.109452
C       3.139305    0.477296    0.366423
O       4.090711    0.371362   -0.671189
C       0.641285   -0.191296    0.810277
O       0.246766   -0.175491    1.936691
H       0.348866    2.235402   -0.490660
H      -0.606454    1.685147   -1.880095
H      -1.338058    1.733576   -0.261715
H      -1.205636   -0.822962   -2.094633
H      -0.655705   -1.957169   -0.847371
H      -1.947181   -0.794993   -0.479438
H       2.314818   -1.515223    0.163822
H       2.764171    1.507739    0.468530
H       3.639880    0.207750    1.301651
H       3.604521    0.500496   -1.494952
