21

C      -0.000378    1.648349    0.051416
C      -0.099382    0.118695    0.017287
C       0.698426   -0.552189    1.126610
C       0.681421   -2.100950    1.312725
C       1.001196   -2.891915    0.013363
C       2.481098   -2.469137    0.142823
O       2.686049   -1.094743   -0.260131
C       2.246654   -0.608186    1.030911
C       2.229527   -2.045125    1.618348
H       1.037783    1.980276   -0.056522
H      -0.577471    2.101881   -0.760230
H      -0.381037    2.051414    0.996808
H      -1.151622   -0.185756    0.094772
H       0.263737   -0.246563   -0.949206
H       0.449355   -0.103008    2.098472
H      -0.068394   -2.516485    1.986140
H       0.900788   -3.968254    0.191385
H       0.481854   -2.631952   -0.912705
H       3.271046   -3.124317   -0.230316
H       2.848534    0.236941    1.371818
H       2.741826   -2.402902    2.507041
