19

C      -0.202183    1.478639   -0.205352
C      -0.037052    0.004144    0.049998
O       1.266245   -0.568994   -0.063351
C       0.640294   -0.584722    1.229190
C       1.304016    0.186809    2.302775
C       0.998804    0.202552    3.599160
C       1.972971    1.063413    4.349594
O       2.872576    1.556079    3.361715
C       2.544491    1.022399    2.083853
H       0.555136    2.072850    0.307294
H      -0.134802    1.686380   -1.278377
H      -1.189258    1.807201    0.137266
H      -0.815643   -0.617573   -0.398775
H       0.287014   -1.570880    1.535570
H       0.187078   -0.330574    4.078877
H       1.487953    1.907601    4.865445
H       2.524859    0.494599    5.116353
H       3.372806    0.410803    1.694196
H       2.398183    1.845362    1.370322
