13

O      -0.549981    0.754832    0.685005
C       0.200836    0.978684   -0.231435
C       1.380016    1.864396   -0.121708
C       1.857205    2.623262    1.123171
C       2.089853    3.842206    0.188445
O       2.340816    4.993982    0.382235
C       1.670729    3.066984   -1.049047
N       2.407004    1.810391   -1.141995
H       0.061475    0.543452   -1.243404
H       1.061993    2.842208    1.840645
H       2.712514    2.192687    1.650962
H       1.144493    3.424228   -1.926692
H       3.345015    1.857710   -0.748551
