14

N      -0.088159    1.497936    0.092597
C      -0.024203    0.096676   -0.048783
C      -1.103600   -0.966221   -0.111916
O      -0.339827   -1.750314   -1.048383
C       0.644642   -0.752748   -1.100877
N       1.637199   -0.612750   -1.844045
C      -0.332767   -0.808060    1.166350
C       0.567728   -1.811414    1.668208
N       1.289848   -2.611754    2.085477
H       0.749568    1.857237    0.540103
H      -0.168331    1.949463   -0.813211
H      -2.177880   -0.931922   -0.225040
H       1.747980   -1.394626   -2.491250
H      -0.863455   -0.245864    1.930231
