16

C      -0.003916    0.821265   -0.753763
C       0.157197   -0.348889    0.249862
C       0.694220    0.119457    1.532194
C       1.146928    0.524830    2.567930
C      -1.110415   -1.065910    0.433656
C      -2.157031   -1.642151    0.560823
C      -3.425144   -2.347341    0.730892
C      -4.300004   -2.249423   -0.445489
N      -4.995709   -2.180099   -1.364207
H       0.959598    1.313414   -0.905359
H      -0.369597    0.443188   -1.711340
H      -0.716421    1.554218   -0.369744
H       0.882051   -1.056226   -0.178396
H       1.544885    0.875153    3.488125
H      -3.250270   -3.410743    0.939292
H      -3.970873   -1.951751    1.597206
