13

C      -0.221562   -0.920882   -0.930694
C      -0.076412    0.041026   -0.225289
C       0.134444    1.216755    0.614037
C       1.430430    1.925206    0.323961
C       2.030878    3.045600    0.853254
N       3.217545    3.253185    0.218048
N       3.390255    2.323814   -0.678324
N       2.312700    1.519700   -0.617323
H      -0.374531   -1.776433   -1.541799
H      -0.701520    1.915198    0.479964
H       0.108999    0.920072    1.670420
H       1.685242    3.700111    1.637250
H       2.230606    0.721896   -1.229600
