17

N      -0.097619    1.521086   -0.095407
C      -0.021224    0.055501   -0.066772
C      -1.349530   -0.520081    0.188381
N      -2.388615   -0.996533    0.353574
C       0.580779   -0.549091   -1.316033
C      -0.096033   -0.925305   -2.596609
C       0.780948   -1.937750   -1.876504
C       2.239388   -1.521957   -2.024333
O       1.941402   -0.170843   -1.559776
H       0.844143    1.874175   -0.245740
H      -0.646377    1.812656   -0.900686
H       0.621830   -0.213998    0.780893
H      -1.159054   -1.132825   -2.527379
H       0.234696   -0.471472   -3.526940
H       0.414312   -2.895613   -1.534873
H       2.917565   -2.023328   -1.326045
H       2.670793   -1.523615   -3.031505
