21

C      -0.183700    1.455821    0.116430
C      -0.192976   -0.066951    0.191951
N       0.883129   -0.548595    1.064445
C       0.913256   -1.992127    1.194340
C       1.907378   -2.537657    2.242156
O       0.806498   -3.076363    3.033359
C      -0.127460   -2.572104    2.141211
N      -1.376717   -2.605414    2.162845
C      -2.052783   -3.243023    3.285153
H       0.755967    1.827541   -0.309876
H      -0.999166    1.815544   -0.517839
H      -0.297233    1.892041    1.112812
H      -1.137512   -0.423271    0.614318
H      -0.123846   -0.494238   -0.826222
H       1.776776   -0.235462    0.693288
H       0.946159   -2.533434    0.232902
H       2.581761   -3.333000    1.916127
H       2.447093   -1.765569    2.795921
H      -1.375147   -3.634623    4.052430
H      -2.730958   -2.519421    3.750305
H      -2.671660   -4.065579    2.909902
