20

C       0.813213    1.360914   -0.340716
C       0.001895    0.110008   -0.003952
N       0.132891   -0.939978   -1.051151
C       1.232963   -1.861950   -0.698306
C       2.423142   -1.805102   -1.660849
C       1.615138   -1.461170    0.725508
O       2.644186   -1.683946    1.315005
C       0.498282   -0.587703    1.282879
O       0.937875    0.230130    2.326891
H       1.882283    1.136577   -0.423670
H       0.479748    1.773653   -1.295974
H       0.695862    2.113503    0.442705
H      -1.053755    0.382238    0.077290
H      -0.737653   -1.446795   -1.140597
H       0.869013   -2.898513   -0.660642
H       2.795133   -0.781770   -1.757214
H       3.235773   -2.437000   -1.291113
H       2.122192   -2.150791   -2.652877
H      -0.301371   -1.271794    1.624741
H       1.803150   -0.120744    2.589954
