17

C      -0.700677    1.115790    0.966834
C      -0.028626   -0.071944    0.287433
N       0.558130   -0.964179    1.272222
C       1.293348   -2.042550    0.893623
N       1.561638   -2.303845   -0.332695
C       1.816502   -2.932396    2.012358
O       2.522515   -3.886392    1.778518
C       1.485025   -2.708560    3.500579
O       0.741142   -1.873548    3.948060
H       0.017966    1.690740    1.559511
H      -1.134799    1.783280    0.218064
H      -1.508517    0.790140    1.631621
H      -0.746882   -0.622743   -0.336127
H       0.763594    0.260352   -0.393039
H       0.278513   -0.891328    2.238173
H       2.152897   -3.134459   -0.370779
H       2.015721   -3.445343    4.136962
