18

C       0.050940    1.363825    0.090582
O      -0.007956   -0.035167   -0.103886
C      -1.290523   -0.572431   -0.091223
C      -2.113736   -0.591956    1.256848
N      -2.434888   -2.037528    1.087672
C      -2.794107   -2.308843   -0.390945
C      -3.183605   -1.183214   -1.274047
C      -2.285555   -0.195114   -1.167872
C      -1.389849   -2.119602    0.025367
H       1.108068    1.632522    0.143347
H      -0.410749    1.917750   -0.738651
H      -0.439270    1.666095    1.027380
H      -1.441466   -0.513383    2.115214
H      -2.967794    0.083524    1.366045
H      -3.225678   -3.296598   -0.492794
H      -4.099061   -1.166317   -1.851609
H      -2.357266    0.791429   -1.608057
H      -0.579464   -2.840993    0.018555
