18

C      -0.134086    1.443692    0.189684
N       1.209748    0.881778   -0.044332
C       1.614848    0.271511    1.290577
C       0.480034   -0.726952    1.170791
C       0.198019   -1.995689    1.433606
C      -0.852990   -2.677116    0.585360
O      -1.506613   -1.820937   -0.343971
C      -0.655848   -0.917400   -1.049245
C      -0.043643   -0.015520   -0.010919
H      -0.375106    1.858391    1.167250
H      -0.492893    2.029749   -0.652629
H       2.612195   -0.170281    1.232828
H       1.587533    0.993625    2.113886
H       0.735087   -2.598984    2.159486
H      -0.384332   -3.526405    0.054940
H      -1.657601   -3.095710    1.201570
H       0.132715   -1.456094   -1.597699
H      -1.294872   -0.401077   -1.769631
