20

C      -0.031521    1.263617   -0.250413
C      -0.236369   -0.076909    0.418441
C       0.669236   -1.263058    0.145616
C       0.649235   -0.610008    1.509811
C       1.840673    0.161817    2.029073
O      -0.104453   -1.259332    2.523948
C       0.525391   -2.321927    3.195464
C       0.622997   -3.565867    2.403384
N       0.694049   -4.551595    1.804774
H       1.025047    1.472689   -0.441482
H      -0.544650    1.287355   -1.217655
H      -0.430693    2.082516    0.358150
H      -1.278182   -0.346369    0.569492
H       0.215426   -2.239576    0.035406
H       1.549373   -1.102085   -0.469732
H       2.318296    0.726407    1.225812
H       1.532688    0.866650    2.808500
H       2.607718   -0.498944    2.447745
H       1.532024   -2.062905    3.549084
H      -0.086058   -2.533423    4.078423
