18

C       0.035209    1.507167    0.004642
O       1.190434    0.656053   -0.008098
C      -0.103073    0.050843   -0.007707
C      -0.533050   -0.853559    1.153572
N      -1.085952   -2.039685    0.459293
C      -0.202187   -2.280018   -0.770225
C      -1.450083   -2.775659   -1.521126
C      -1.855589   -1.503843   -0.755920
C      -0.523900   -0.802471   -1.172707
H      -0.127701    2.058181    0.930782
H      -0.131554    2.081453   -0.906572
H       0.320132   -1.137353    1.776619
H      -1.302536   -0.409684    1.792658
H       0.779910   -2.746817   -0.677242
H      -1.429388   -2.711972   -2.610026
H      -1.886062   -3.707637   -1.158837
H      -2.844162   -1.053568   -0.642345
H      -0.357788   -0.433698   -2.185974
