23

C      -0.327022    1.610288   -0.147528
C      -0.016394    0.127480   -0.014291
C       1.065595   -0.613385   -0.843179
C       2.321554    0.167215   -1.264296
C       3.330254    0.394078   -0.123090
C       2.773690    1.104509    1.120822
C       1.769835    0.285368    1.958123
C       0.713065   -0.512454    1.194743
O       1.334010   -1.473626    0.296067
H       0.556352    2.248665   -0.102065
H      -0.827879    1.809428   -1.101749
H      -1.009595    1.931178    0.647342
H      -0.950890   -0.427737   -0.147363
H       0.678772   -1.192792   -1.689097
H       2.829159   -0.384784   -2.063963
H       2.015680    1.125134   -1.706244
H       3.739892   -0.576931    0.173318
H       4.166331    0.982321   -0.519649
H       3.612903    1.368353    1.775810
H       2.330164    2.061059    0.823044
H       2.324562   -0.450346    2.555178
H       1.265794    0.943607    2.678305
H       0.060805   -1.021830    1.914993
