22

C      -1.834625    0.068659   -0.593673
C      -0.366301    0.079949   -0.152983
C       0.570449   -0.578136   -1.161494
C       1.836286   -1.231195   -0.632380
C       0.692710   -2.078743   -1.132417
C       0.691223    0.131017   -2.476478
C       1.100727    1.582182   -2.480674
N       0.455187   -0.546658   -3.535616
O       0.619443    0.219214   -4.703834
H      -1.971590    0.604120   -1.538693
H      -2.190466   -0.955478   -0.744667
H      -2.474145    0.543365    0.156937
H      -0.045765    1.112399    0.035494
H      -0.265863   -0.446064    0.803838
H       2.728671   -1.177711   -1.246773
H       2.022217   -1.183021    0.435927
H       0.095948   -2.610560   -0.398615
H       0.812187   -2.592414   -2.077167
H       1.726772    1.795889   -3.348964
H       0.223514    2.236294   -2.549298
H       1.641864    1.836106   -1.566576
H       0.447769   -0.431374   -5.392339
