15

O      -0.148837    1.461333    0.011058
C       0.027677    0.054303    0.002088
C      -1.361264   -0.566422    0.011793
C      -1.328982   -2.072625    0.003624
O      -0.321470   -2.738573   -0.009611
C      -2.711784   -2.770727    0.013091
O      -3.735211   -2.122733    0.026388
C      -2.683801   -4.215234    0.004997
C      -2.685615   -5.418734   -0.001508
H       0.720536    1.872047    0.004776
H       0.577305   -0.283411   -0.888565
H       0.593762   -0.292602    0.878797
H      -1.931890   -0.229617    0.886243
H      -1.947997   -0.220593   -0.848368
H      -2.684625   -6.482070   -0.007238
