19

N      -0.393670    1.279905    0.157603
C      -0.228631    0.043062   -0.024316
O      -1.022599   -0.844186    0.610734
C      -0.902118   -2.212564    0.260086
C      -1.354089   -3.184105    1.371434
N      -2.313355   -3.869781    0.446301
C      -3.708468   -3.331965    0.576398
C      -3.436450   -2.215450   -0.468622
C      -2.023676   -2.820369   -0.618209
H       0.301491    1.804461   -0.369195
H       0.532255   -0.431228   -0.660206
H       0.103950   -2.412315   -0.125378
H      -0.580271   -3.854711    1.755118
H      -1.829659   -2.671470    2.214447
H      -4.447242   -4.075089    0.262219
H      -3.962037   -3.000749    1.588969
H      -4.049363   -2.262003   -1.370308
H      -3.447479   -1.194008   -0.084406
H      -1.730419   -3.171892   -1.611431
