17

O      -0.062628    1.414513    0.010269
C       0.063265    0.005238    0.001554
C      -1.361835   -0.560481    0.011848
C      -1.399168   -2.013536    0.004514
C      -1.423765   -3.220787   -0.001650
C      -1.470502   -4.671185   -0.008798
O      -2.505091   -5.294760   -0.002077
C      -0.094498   -5.328913   -0.025635
O      -0.238537   -6.722219   -0.031984
H       0.818329    1.799628    0.003802
H       0.592884   -0.354348   -0.893334
H       0.609481   -0.363847    0.882492
H      -1.886275   -0.178303    0.896261
H      -1.902642   -0.168991   -0.858526
H       0.439121   -4.943956   -0.912279
H       0.456027   -4.953730    0.854825
H       0.639992   -7.112849   -0.040641
