19

C      -0.009007    1.534437   -0.118168
O       0.072111    0.130047   -0.156650
C       0.735810   -0.345140   -1.309550
C       0.751511   -1.864366   -1.223425
C       1.435084   -2.524033   -2.397666
N       1.935895   -1.851742   -3.347856
N       1.437334   -3.938625   -2.291895
C       1.973116   -4.833343   -3.183628
O       2.537203   -4.553285   -4.217282
H       0.988406    2.001912   -0.110991
H      -0.566998    1.935845   -0.978941
H      -0.533467    1.807379    0.800940
H       0.222116   -0.020019   -2.226216
H       1.762831    0.044676   -1.365888
H       1.249219   -2.166696   -0.292126
H      -0.281062   -2.230981   -1.147047
H       2.353455   -2.463735   -4.049122
H       0.998359   -4.334704   -1.473729
H       1.828909   -5.877378   -2.844126
