20

C      -0.777897    1.788703    0.369011
N       0.658076    1.528430   -0.186966
C      -0.044856    0.401553   -0.991567
C       0.567129   -0.962139   -1.332560
C       0.452327   -1.678101    0.034334
C       1.447570   -0.864837    0.895887
C       0.727262    0.486884    0.962707
C      -0.680480    0.228478    0.398648
C      -0.984555   -1.256019    0.583605
H      -1.441566    2.255960   -0.362885
H      -0.777144    2.329390    1.318807
H      -0.656281    0.823251   -1.792967
H       1.596147   -0.938714   -1.703724
H      -0.054240   -1.430307   -2.103989
H       0.628888   -2.755099    0.011603
H       2.451740   -0.844160    0.461834
H       1.534062   -1.254774    1.916109
H       0.814961    0.985847    1.930826
H      -1.791930   -1.649537   -0.041014
H      -1.136321   -1.577082    1.618373
