20

C      -0.372429    1.556119   -0.170879
C       0.004074    0.082804    0.033265
C       0.848512   -0.486174   -1.085532
C       0.185474   -1.008897   -2.356142
C       0.906546   -1.949638   -1.420783
O       2.215585   -2.346490   -1.734761
C       2.970837   -1.167605   -2.012901
C       2.290241   -0.010519   -1.249065
H       0.517461    2.193042   -0.209897
H      -0.919998    1.694078   -1.109115
H      -1.004613    1.918703    0.645599
H       0.542907   -0.029155    0.984216
H      -0.911939   -0.513635    0.128470
H      -0.899301   -1.052133   -2.358724
H       0.621776   -0.789571   -3.325015
H       0.369104   -2.717322   -0.875463
H       4.003390   -1.348555   -1.701558
H       2.977205   -0.969471   -3.093909
H       2.391252    0.938170   -1.784961
H       2.734955    0.118287   -0.255169
