18

C      -0.001503    1.593324   -0.046653
C       0.081613    0.077082    0.021463
N       1.078229   -0.695429   -0.901992
C       2.274269    0.117087   -0.879498
N       2.943267    0.134929    0.203495
C       2.221821   -0.777461    1.077078
C       1.317629   -1.635350    0.261582
C       0.677939   -0.656015    1.217542
N       0.104662   -0.928222    2.490035
H       0.942241    2.075890    0.216375
H      -0.304459    1.927547   -1.044609
H      -0.764565    1.936165    0.661024
H      -0.898083   -0.353533   -0.211197
H       2.510416    0.730327   -1.743008
H       2.731711   -1.153121    1.953720
H       1.276575   -2.711926    0.154039
H       0.162631   -0.122876    3.105146
H      -0.874351   -1.185842    2.408016
