22

C       0.126945    1.555068   -0.072664
C       0.040086    0.035841    0.096802
C      -1.406606   -0.523411    0.041203
C      -2.276778   -0.004446    1.206739
C      -3.692655   -0.583181    1.237634
O      -2.091148   -0.143404   -1.144501
C      -1.585915   -0.636772   -2.374570
C      -1.319395   -2.006900    0.126433
N      -1.235378   -3.158277    0.185993
H       1.173647    1.863214   -0.147520
H      -0.390573    1.881220   -0.978679
H      -0.312583    2.088677    0.774380
H       0.633180   -0.458006   -0.679784
H       0.481742   -0.272411    1.050588
H      -1.752677   -0.221358    2.143862
H      -2.324318    1.083418    1.104091
H      -4.218717   -0.365687    0.305503
H      -3.677390   -1.668421    1.376306
H      -4.261133   -0.146720    2.063807
H      -0.604528   -0.212299   -2.623553
H      -1.510338   -1.731604   -2.372456
H      -2.302656   -0.331314   -3.139608
