19

C      -0.004486    1.600525   -0.018193
C       0.029858    0.061988   -0.047066
C       0.697952   -0.483796   -1.220260
C       1.252476   -0.934420   -2.194062
C       1.919504   -1.465266   -3.365671
O       2.038881   -2.660179   -3.552035
C       2.454154   -0.428563   -4.335769
C       3.143501   -1.042919   -5.545156
O       3.589942    0.031670   -6.359700
H       1.008004    2.012524   -0.021113
H      -0.532953    1.994437   -0.890227
H      -0.516672    1.949916    0.882656
H       0.531834   -0.318627    0.851848
H      -0.992169   -0.336515   -0.007704
H       1.625349    0.215597   -4.656460
H       3.145569    0.233796   -3.799180
H       3.977524   -1.676729   -5.212094
H       2.438619   -1.695179   -6.079890
H       4.028447   -0.342028   -7.129387
