20

C       0.014521    1.454790   -0.173238
C       1.304964    0.710636   -0.129013
N       0.035391    0.014450    0.064349
C      -0.290686   -0.468619    1.378574
C      -0.270026   -1.968802    1.575759
C      -1.588523   -1.232022    1.608419
C      -2.152066   -0.804112    2.960993
C      -1.090184    0.129616    3.506185
C      -0.095749    0.326508    2.637697
H      -0.212845    2.109091    0.665639
H      -0.409347    1.767117   -1.123715
H       1.836145    0.469698   -1.045816
H       1.946168    0.872405    0.734746
H      -0.079186   -2.561461    0.687741
H       0.146050   -2.361720    2.498063
H      -2.262529   -1.388332    0.775432
H      -3.119963   -0.295015    2.858898
H      -2.323753   -1.657632    3.630127
H      -1.137321    0.544158    4.507307
H       0.775498    0.945619    2.821138
