18

O       0.374434    0.436528    1.535946
C       0.444165    1.595905    1.262075
O       0.645266    2.026621   -0.003064
C       0.760553    3.443542   -0.200110
C       2.196366    3.879421    0.017380
C       2.676240    5.352563    0.006128
C       2.005502    5.467388    1.390895
N       2.677757    4.080408    1.477261
C       3.871398    4.795009    0.812550
H       0.344736    2.422153    1.989492
H       0.473166    3.614975   -1.241229
H       0.041869    3.967100    0.437235
H       2.841259    3.172185   -0.515455
H       2.677976    6.066751   -0.824552
H       2.424798    6.185818    2.099528
H       0.917578    5.455510    1.465224
H       4.563987    4.113790    0.311976
H       4.394308    5.476702    1.487351
