22

C      -0.036198    1.555240    0.013285
C       0.070874    0.031377    0.001301
N       0.723631   -0.491128   -1.213257
C       0.079398   -0.035102   -2.437837
C       0.836754   -1.947530   -1.202891
C       1.716070   -2.424321   -0.050845
C       1.140180   -1.948012    1.288639
C       0.825064   -0.464299    1.253421
O       1.103126    0.276369    2.166813
H       0.928137    2.005606   -0.239295
H      -0.790345    1.915095   -0.689249
H      -0.307737    1.887928    1.015898
H      -0.955119   -0.395630    0.091571
H       0.132485    1.051252   -2.524489
H       0.603498   -0.462239   -3.297838
H      -0.984802   -0.334519   -2.505507
H      -0.160106   -2.433391   -1.137821
H       1.275116   -2.257888   -2.156884
H       1.793912   -3.516351   -0.065135
H       2.725406   -2.019955   -0.184547
H       0.191659   -2.472200    1.477876
H       1.802120   -2.145806    2.134677
