17

C      -0.120719    1.507835   -0.009455
N      -0.003908    0.055228    0.051679
C       1.315464   -0.513912   -0.177458
C       0.711027   -0.499205    1.184500
C       1.253291    0.145644    2.444528
C       0.221222    0.166159    3.495043
N       0.942089   -1.119399    3.254893
C       0.326218   -1.687042    2.049361
O      -0.169710   -2.755118    1.889558
H       0.768685    2.039635    0.364918
H      -0.286086    1.802419   -1.049566
H      -0.986706    1.825570    0.578600
H       1.345426   -1.441077   -0.742576
H       2.151312    0.165916   -0.344684
H       2.221451    0.617528    2.554386
H       0.468437    0.603320    4.456945
H      -0.828764    0.230912    3.220449
