23

C       0.119344    1.447662    0.309712
C      -0.049364   -0.046187   -0.005724
C      -1.543306   -0.363243   -0.156362
O      -2.169588   -0.168277    1.104051
C       0.731813   -0.547084   -1.252921
C       2.073257    0.175003   -1.490550
O       2.655329   -0.127200   -2.741837
C       0.960489   -2.059608   -1.129183
O       1.449911   -2.571302   -2.373590
H       1.140038    1.694156    0.612394
H      -0.136565    2.068778   -0.556773
H      -0.551529    1.717615    1.128392
H       0.299931   -0.609837    0.871414
H      -1.973172    0.303314   -0.922264
H      -1.690592   -1.396063   -0.505567
H      -3.119780   -0.253506    0.985858
H       0.119985   -0.372538   -2.149867
H       1.926304    1.257881   -1.479730
H       2.759451   -0.062933   -0.655688
H       2.549659   -1.078908   -2.874933
H       1.689428   -2.242926   -0.324115
H       0.030934   -2.576735   -0.855666
H       1.734984   -3.480079   -2.240215
