23

C       0.334516    1.718705   -0.111397
C      -0.006015    0.241234    0.068230
C       0.906556   -0.726309   -0.747090
C       1.758835   -0.967720    0.530313
C       0.571519   -0.402204    1.357168
O       0.832348    0.502836    2.404628
C       1.336975   -0.099505    3.555985
C       1.057858    0.598687    4.845993
C       0.377316   -0.722196    4.539292
H       1.408670    1.902920   -0.011412
H       0.024961    2.059644   -1.105181
H      -0.172710    2.333086    0.637553
H      -1.082245    0.095885   -0.066016
H       0.378499   -1.627163   -1.070388
H       1.419755   -0.297317   -1.611247
H       2.091491   -1.986964    0.739811
H       2.620163   -0.295856    0.579278
H      -0.072601   -1.216621    1.718774
H       2.309909   -0.574226    3.427969
H       1.835778    0.626554    5.600530
H       0.447815    1.492638    4.785575
H      -0.676413   -0.682856    4.286760
H       0.684325   -1.609656    5.081867
