18

C       0.538833    1.488113    0.046291
C       0.235220   -0.010464    0.008360
C      -1.268659   -0.314406   -0.016219
O      -1.815063    0.238254   -1.235965
C      -2.986641    0.923862   -1.116854
N      -3.377995    1.363171   -2.348611
O      -3.566031    1.144168   -0.080198
C      -1.543598   -1.749098    0.031748
C      -1.742797   -2.932706    0.083465
H       1.618445    1.661968    0.069991
H       0.134430    1.992842   -0.835104
H       0.103134    1.959424    0.933796
H       0.696258   -0.476838   -0.869084
H       0.654458   -0.510434    0.888134
H      -1.772692    0.181191    0.819698
H      -2.968131    0.941145   -3.164489
H      -4.319015    1.710575   -2.416508
H      -1.932321   -3.976484    0.134337
