19

C      -0.125272    1.707506   -0.042775
C       0.050274    0.192400   -0.044020
C      -1.293417   -0.551755    0.173539
C      -1.976381   -0.212142    1.415164
C      -2.540960    0.070475    2.437589
C       0.862940   -0.436947   -1.229415
C       1.821104   -1.151779   -0.230054
C       1.160748   -0.340437    0.895974
O       1.444864   -0.116200    2.035822
H       0.832311    2.214041   -0.197204
H      -0.806963    2.019801   -0.842283
H      -0.538320    2.043804    0.911523
H      -1.945890   -0.322668   -0.680079
H      -1.120494   -1.635415    0.139331
H      -3.031868    0.315187    3.346753
H       0.292564   -1.092051   -1.891129
H       1.367209    0.318860   -1.834927
H       1.643364   -2.227229   -0.128715
H       2.895583   -0.994118   -0.351218
