20

C      -0.594228    1.394683    0.048300
C       0.135278    0.045754    0.020498
C       0.798458   -0.211009   -1.344505
C       1.185190   -1.665952   -1.491266
C       2.555993   -2.083430   -1.979360
C       2.185333   -2.236230   -0.533107
O       2.851524   -1.409857    0.395241
C       2.160313   -0.576043    1.234554
N       1.057542    0.022234    1.152117
H       0.106552    2.213504   -0.147155
H      -1.383927    1.428697   -0.709260
H      -1.039672    1.563133    1.031462
H      -0.613589   -0.742644    0.193079
H       0.115321    0.076114   -2.152283
H       1.677279    0.438073   -1.435379
H       0.358880   -2.328323   -1.737402
H       2.659356   -2.977763   -2.583367
H       3.257255   -1.289899   -2.214095
H       2.031216   -3.237054   -0.138140
H       2.780493   -0.418427    2.118219
