17

N       0.061080   -1.134858    0.078244
C       0.026240    0.020395    0.040301
C      -0.008484    1.469740    0.017564
C      -1.114538    2.177299    0.839156
C      -1.295013    3.128376   -0.358017
C      -0.230302    4.235999   -0.475397
C       0.714354    3.165363   -1.054695
C       1.344794    2.222583   -0.013520
N      -0.465930    2.199883   -1.263093
H      -1.980535    1.526539    0.974209
H      -0.827090    2.598275    1.805923
H      -2.315962    3.362243   -0.661956
H      -0.505301    4.977650   -1.229154
H       0.076350    4.756256    0.436672
H       1.319857    3.429170   -1.922555
H       1.703620    2.644900    0.928488
H       2.129412    1.602183   -0.450735
