22

C       0.533765    1.469642    0.054622
N       0.781496    0.045471    0.166128
C       0.113388   -0.742887    1.059010
O      -0.699210   -0.299633    1.854388
C       0.422790   -2.226751    1.006658
C      -0.829679   -3.057510    0.781844
C       1.747327   -2.753766    0.495182
C       1.456406   -2.760745    1.978385
C       2.216568   -1.852388    2.918805
H       1.474427    2.029594    0.036942
H      -0.036777    1.715381   -0.849380
H      -0.049694    1.766826    0.926671
H       1.335846   -0.408426   -0.539474
H      -1.251651   -2.884264   -0.214920
H      -0.608976   -4.125527    0.870962
H      -1.589059   -2.792337    1.521960
H       1.739009   -3.691923   -0.050494
H       2.506239   -2.055265    0.154921
H       1.205047   -3.729583    2.403787
H       2.484240   -0.908166    2.434655
H       1.617031   -1.610791    3.802186
H       3.143901   -2.328825    3.255041
