15

O       0.066144    1.373150    0.218198
C      -0.014417   -0.016917    0.053147
C      -0.694650   -0.838282    1.125396
C      -1.400771   -0.558903   -0.178320
C       1.127398   -0.583513   -0.692141
C       2.148983    0.039164   -1.336815
O       2.949115   -0.885689   -1.871657
N       2.383539   -2.144832   -1.539580
N       1.342460   -1.935582   -0.862271
H       0.681547    1.550117    0.939174
H      -0.321368   -1.839726    1.305239
H      -1.028111   -0.294247    2.002110
H      -2.197230    0.175781   -0.174938
H      -1.510833   -1.370650   -0.887666
H       2.405969    1.072829   -1.490107
