15

C      -0.037396    1.543771   -0.006718
C      -0.011495    0.042354   -0.000033
N      -0.038324   -0.536005   -1.153224
O      -0.015541   -1.908939   -1.174226
C       0.034885   -2.688752   -0.009052
O       0.050887   -3.873888   -0.149247
N       0.062665   -2.030277    1.216549
C       0.041233   -0.740002    1.235657
C       0.071512   -0.041831    2.562871
H       0.853768    1.956994    0.477533
H      -0.076074    1.900589   -1.036769
H      -0.909813    1.926815    0.533279
H       0.109137   -0.781517    3.362154
H       0.943084    0.618653    2.634180
H      -0.815266    0.589403    2.689792
