17

C      -0.193337    1.578971    0.024135
C      -0.026142    0.076606   -0.054936
C       0.909997   -0.576198   -1.068676
C       2.151484   -0.205165   -0.179557
N       1.030135   -0.538036    0.876356
C       1.112701   -1.778698   -0.081740
C       2.596834   -1.637984   -0.150300
N       3.596771   -2.405061   -0.185572
O       4.798126   -1.668263   -0.281589
H       0.752851    2.109029   -0.119521
H      -0.893763    1.926674   -0.742840
H      -0.596641    1.864202    1.001213
H      -0.992370   -0.426691    0.075369
H       0.876208   -0.622119   -2.162182
H       2.722036    0.717783   -0.139345
H       0.473342   -2.646470    0.067132
H       5.459859   -2.367945   -0.278608
