18

N      -0.054788    1.435887    0.118463
C       0.011555    0.016778    0.002184
C       0.324510   -0.835985   -1.273728
N      -0.403611   -1.962038   -0.571957
C       0.531958   -2.181387    0.580655
C       0.860463   -0.727219    1.046430
C      -1.289748   -0.862703   -0.003482
C      -2.007179   -1.132749    1.232290
N      -2.560808   -1.331503    2.227715
H       0.854732    1.842816    0.305068
H      -0.429215    1.872680   -0.716730
H      -0.227400   -0.519833   -2.163024
H       1.365639   -1.054089   -1.525592
H       0.036707   -2.776832    1.349174
H       1.404064   -2.731742    0.222358
H       1.920809   -0.471687    0.957547
H       0.535486   -0.513940    2.067294
H      -1.998244   -0.544664   -0.772775
