18

O      -0.046031    0.024606   -0.013756
C      -0.013174    1.213988    0.054502
O       1.134881    1.918127   -0.097919
C       1.021053    3.323599   -0.055587
C       2.415333    3.919712    0.137452
N       2.414379    5.375077   -0.005392
C       1.732629    5.793170   -1.232833
C       0.353782    5.147706   -1.383574
O       0.455338    3.728824   -1.279444
H      -0.887352    1.859456    0.256999
H       0.353877    3.625445    0.775213
H       2.810966    3.643850    1.119004
H       3.069584    3.483912   -0.626648
H       1.959741    5.798070    0.798997
H       1.646719    6.884619   -1.242154
H       2.357306    5.500719   -2.086016
H      -0.330626    5.533098   -0.607989
H      -0.089667    5.348375   -2.362932
