18

O       0.686910   -0.443602   -1.139864
C      -0.099400   -0.034562   -0.053330
C      -1.458958   -0.704589   -0.098401
O      -1.750332   -1.468486   -0.988564
C       0.610164   -0.383473    1.263277
C       1.979855    0.265281    1.595178
C       1.320939    0.743333    2.889164
C       0.147050    1.578978    2.593989
N      -0.021550    0.107993    2.542965
H       0.128459   -1.058090   -1.643779
H      -0.277723    1.053224   -0.099730
H      -2.156830   -0.467736    0.726565
H       0.673761   -1.473313    1.327876
H       2.772359   -0.470384    1.733380
H       2.340976    1.050367    0.925223
H       1.742817    0.654801    3.884562
H      -0.390475    2.016375    3.429332
H       0.121631    2.173144    1.683904
