17

C      -0.016890    1.449355   -0.007538
C       0.039025   -0.048491   -0.077063
C       0.572329   -0.964702   -1.206605
C       0.073964   -1.945611   -0.125269
O       0.000586   -3.323793   -0.142449
C       0.532028   -1.007889    1.056698
N      -0.801840   -0.978919    1.742050
C      -1.124411   -1.037904    0.278302
H       0.985342    1.886666   -0.074096
H      -0.615197    1.862218   -0.826943
H      -0.467017    1.762110    0.939421
H       0.018543   -0.950133   -2.150794
H       1.651877   -0.931128   -1.390991
H       0.889214   -3.678520   -0.255634
H       1.485995   -0.979838    1.587804
H      -0.990077   -1.888431    2.172096
H      -2.140824   -1.044614   -0.119236
