17

C      -0.097996    1.574063    0.281130
C       0.027167    0.081762    0.056503
C       1.313955   -0.590476   -0.404602
C       2.580335    0.161460   -0.597567
O       3.379418   -0.118499   -1.458290
C       0.782638   -0.762560    1.045259
O       1.452322   -0.132044    2.076581
C       0.285942   -2.111523    1.398113
O       0.499655   -2.592101    2.488102
H       0.734331    1.969662    0.864491
H      -0.145377    2.107546   -0.672869
H      -1.017083    1.788318    0.834623
H      -0.861921   -0.384497   -0.361816
H       1.215103   -1.437281   -1.076478
H       2.758064    0.997989    0.104972
H       1.513100   -0.801224    2.778223
H      -0.276944   -2.651050    0.610791
