23

C       0.064519    1.475148    0.343072
C      -0.048774    0.031068   -0.162979
C      -1.459859   -0.516772   -0.121201
C      -1.993808   -1.098655    1.166312
C      -1.747714   -2.001226   -0.020330
C      -2.936577   -2.330492   -0.898743
O      -3.774109   -3.292686   -0.269258
C      -3.629967   -0.968553   -1.146489
C      -2.506024    0.083816   -1.064043
H       1.101877    1.822830    0.313330
H      -0.532144    2.161296   -0.266955
H      -0.289567    1.556810    1.376129
H       0.331080   -0.025033   -1.192730
H       0.603493   -0.614414    0.438340
H      -1.293302   -1.184867    1.990595
H      -3.013269   -0.899857    1.478647
H      -0.942473   -2.725398    0.040783
H      -2.559647   -2.734052   -1.852999
H      -4.485380   -3.509918   -0.880271
H      -4.168855   -0.937763   -2.098199
H      -4.369489   -0.818341   -0.353457
H      -2.876628    1.061148   -0.735365
H      -2.046812    0.233214   -2.049951
