18

O       0.026466    1.302155   -0.226986
C      -0.032408   -0.105252   -0.243582
C      -1.382379   -0.623325    0.276953
O      -2.407220   -0.004355   -0.531754
C      -3.199855   -0.687538   -1.408196
N      -4.147041   -0.108063   -2.015450
C      -2.917530   -2.152470   -1.661238
C      -2.141661   -2.819273   -0.565322
C      -1.448768   -2.114538    0.320821
H      -0.755342    1.612863   -0.698595
H       0.134182   -0.516869   -1.252334
H       0.772839   -0.468747    0.403410
H      -1.534033   -0.202381    1.279107
H      -4.196346    0.874802   -1.739775
H      -3.878581   -2.642931   -1.836752
H      -2.371386   -2.235708   -2.612156
H      -2.158909   -3.904166   -0.524824
H      -0.875307   -2.593183    1.108724
