18

C       0.043711    1.501808   -0.014976
C       0.065361   -0.007004   -0.011778
N      -0.779845   -0.760244    0.948673
C       0.685303   -0.765956    1.132848
C       1.369846   -2.057752    0.871135
C       1.182547   -2.718960   -0.269485
C       0.302875   -2.183746   -1.373063
C       0.179301   -0.664231   -1.359690
O       0.208160   -0.008510   -2.378026
H       0.922208    1.902866   -0.527227
H      -0.837778    1.873242   -0.546287
H       0.028242    1.891762    1.007769
H      -1.205629   -0.092425    1.588641
H       1.085989   -0.154260    1.937347
H       2.008909   -2.457178    1.652446
H       1.655574   -3.682279   -0.435347
H       0.659711   -2.477671   -2.363424
H      -0.710710   -2.596154   -1.261268
