13

O       0.005559    1.397962    0.009289
C      -0.014779   -0.002110    0.003023
C      -1.457597   -0.476636    0.012782
O      -2.413517    0.259397    0.023994
C      -1.665393   -1.953683    0.007824
N      -0.697067   -2.834734   -0.004149
O      -1.298182   -4.050367   -0.004666
N      -2.668378   -3.933608    0.007206
C      -2.906438   -2.654428    0.014839
H       0.923963    1.682697    0.002682
H       0.471359   -0.442659   -0.883912
H       0.485959   -0.450753    0.877693
H      -3.908802   -2.258190    0.024879
