20

C       0.030440    1.574252    0.164899
C       0.011749    0.040139    0.021001
C       0.647236   -0.471176   -1.231626
C       0.066031   -0.791935   -2.450537
N      -1.316475   -0.743134   -2.748176
C       1.135421   -1.235853   -3.255080
N       2.294239   -1.198744   -2.598918
N       1.983642   -0.719596   -1.379445
C       3.031714   -0.560664   -0.396346
H       1.053552    1.962120    0.196177
H      -0.475563    2.053752   -0.678904
H      -0.475390    1.884853    1.084677
H       0.491757   -0.410698    0.898253
H      -1.026862   -0.309756    0.023925
H      -1.686484    0.200330   -2.714246
H      -1.503398   -1.111368   -3.672823
H       1.105082   -1.588323   -4.276702
H       3.137339    0.485122   -0.088950
H       2.838592   -1.170135    0.492999
H       3.958283   -0.893155   -0.862969
