21

C      -0.064436    1.485656    0.043897
C      -0.015236   -0.022212    0.035225
C       1.314178   -0.720102   -0.230512
C       0.662454   -0.812765    1.131145
O       1.237502   -0.128939    2.205235
C      -0.175768   -2.043240    1.432771
C      -1.079119   -2.219610    0.188475
O      -2.355661   -2.773150    0.467536
C      -1.262390   -0.795150   -0.371431
H       0.822635    1.900159    0.529777
H      -0.119490    1.888562   -0.973920
H      -0.942897    1.845090    0.592022
H       1.363929   -1.588129   -0.881423
H       2.180006   -0.068074   -0.288473
H       2.054531   -0.579228    2.444335
H       0.417845   -2.939236    1.654088
H      -0.808250   -1.831281    2.302521
H      -0.560880   -2.844243   -0.554062
H      -2.231119   -3.685400    0.747143
H      -2.142715   -0.353452    0.111571
H      -1.446677   -0.797442   -1.450921
