18

O       0.205733    1.189163   -0.205331
C      -0.048596   -0.158312    0.055674
C      -0.677815   -0.577179    1.349515
C      -1.477930   -0.627262    0.020841
C      -2.548381    0.414881   -0.053880
O      -3.647345    0.219246   -0.507368
N      -1.800339   -1.825831   -0.695585
C      -1.328310   -3.133702   -0.254386
C      -2.758009   -2.749038   -0.100715
H       0.950570    1.462524    0.340946
H       0.655840   -0.859014   -0.394138
H      -0.371312   -1.508793    1.809931
H      -0.956508    0.206563    2.046706
H      -2.255849    1.395367    0.372109
H      -1.014722   -3.798238   -1.054266
H      -0.734191   -3.214402    0.653307
H      -3.103822   -2.540671    0.909560
H      -3.517684   -3.131706   -0.774314
