19

C      -0.037749    1.378627    0.044990
N       0.046320   -0.065327    0.101761
C       0.520349   -0.655360   -0.902471
O       0.629924   -1.998609   -0.923435
C       1.183463   -2.557079   -2.117122
C       1.214430   -4.064954   -1.927828
C       1.792584   -4.763830   -3.154093
N       1.851309   -6.122626   -3.061791
O       2.171867   -4.157150   -4.138433
H       0.534971    1.813927    0.872076
H       0.333088    1.814244   -0.897709
H      -1.079060    1.692792    0.181162
H       0.874478   -0.154273   -1.817687
H       0.572041   -2.293259   -2.987325
H       2.194624   -2.172580   -2.291384
H       1.810056   -4.314768   -1.041919
H       0.201003   -4.434522   -1.731972
H       1.540072   -6.623878   -2.248721
H       2.225378   -6.639790   -3.840070
