21

C       0.049987    1.512841   -0.026299
C       0.031315    0.007770   -0.032552
C       0.579369   -0.948722   -1.126342
O       1.942425   -0.947964   -1.467004
C       0.018808   -1.895207   -0.039639
C       0.607909   -0.961365    1.069004
C      -0.335690   -0.958498    2.273645
C      -1.702052   -0.945842    1.533140
C      -1.211923   -0.942069    0.084215
H       1.073606    1.888521   -0.133779
H      -0.539693    1.917037   -0.856650
H      -0.360797    1.920025    0.904633
H       0.039342   -0.939413   -2.077996
H       2.463927   -1.008639   -0.660321
H       0.000658   -2.986889   -0.034453
H       1.680961   -0.968315    1.279770
H      -0.202621   -1.843341    2.904170
H      -0.189191   -0.079775    2.910307
H      -2.314114   -1.824754    1.758640
H      -2.302999   -0.061185    1.767550
H      -1.953861   -0.933788   -0.717715
