19

O       0.120698    1.381456   -0.127671
C       0.060629   -0.008255    0.120907
C      -1.385970   -0.509349    0.070912
C      -1.975083   -0.566841   -1.363114
O      -1.308510    0.268648   -2.292217
C      -1.697555   -2.088923   -1.403513
C      -1.594704   -2.070055    0.152874
C      -0.519085   -2.916504    0.776046
O      -0.679042   -3.633249    1.731140
H      -0.214889    1.501841   -1.024958
H       0.695853   -0.567178   -0.583502
H       0.472010   -0.166846    1.124072
H      -1.969212    0.067630    0.792149
H      -3.052203   -0.357656   -1.355746
H      -1.785621    0.263710   -3.127200
H      -2.446362   -2.746342   -1.849826
H      -0.723840   -2.286738   -1.863130
H      -2.541900   -2.313383    0.638622
H       0.473614   -2.851242    0.272676
