17

N       0.225244   -0.930838    0.783778
C       0.101147    0.153296    0.393921
C       0.001826    1.484864   -0.110937
C      -1.109007    2.210962    0.073227
C      -1.259134    3.598569   -0.470306
C       0.064500    4.261618   -0.815344
C       1.172543    4.274400    0.180552
N       1.273873    3.464907   -1.033043
C       1.197728    2.014987   -0.888701
H      -1.946333    1.785506    0.617446
H      -1.888872    3.554537   -1.371484
H      -1.816542    4.221043    0.241438
H      -0.024049    5.107095   -1.494455
H       1.857960    5.115409    0.236082
H       0.994338    3.766414    1.126536
H       2.125164    1.666962   -0.420984
H       1.179415    1.579387   -1.896449
