19

C       0.162919    1.136370   -0.058132
C       0.467474   -0.320648   -0.370774
O       1.149890   -0.965065    0.728549
C       0.375960   -1.477777    1.698253
O      -0.825271   -1.406405    1.731753
C       1.241419   -2.171658    2.762939
C       0.450482   -2.370972    4.066090
C       1.745212   -3.434952    2.226092
C       2.136582   -4.487914    1.799746
H       1.076037    1.676110    0.208977
H      -0.276643    1.618642   -0.937033
H      -0.549136    1.211632    0.766871
H      -0.447290   -0.876085   -0.589539
H       1.158848   -0.413670   -1.211318
H       2.099510   -1.512244    2.943895
H       1.073941   -2.874022    4.808417
H       0.129701   -1.405624    4.465821
H      -0.438754   -2.975042    3.879365
H       2.491485   -5.413564    1.419313
