20

C      -0.057262    1.569655    0.081324
C      -0.000732    0.033325    0.065724
C       0.711226   -0.488417    1.324545
C      -1.427061   -0.537114    0.003027
O      -2.145932   -0.112358    1.150676
C       0.732573   -0.465396   -1.213138
C       2.115418   -0.018868   -1.328605
C       3.255815    0.350974   -1.421013
H       0.949881    1.993688    0.115302
H      -0.554531    1.954526   -0.816735
H      -0.616882    1.919734    0.951382
H       0.168363   -0.182622    2.221495
H       0.766288   -1.583345    1.320513
H       1.732074   -0.101055    1.380416
H      -1.918993   -0.187853   -0.920042
H      -1.377632   -1.637717   -0.044350
H      -3.034595   -0.475166    1.101876
H       0.711165   -1.563574   -1.233811
H       0.176213   -0.130723   -2.099328
H       4.263359    0.673942   -1.508783
