15

O      -0.638574    0.569886    0.150855
C       0.531598    0.605150   -0.120839
C       1.419199    1.831216    0.138988
O       2.789217    1.445124    0.197661
C       3.491170    1.933015   -0.928504
C       3.906240    0.804118   -1.880888
O       3.456474   -0.308157   -1.852395
C       2.523331    2.869382   -1.619353
C       1.343699    2.801966   -1.011547
H       1.080870   -0.230766   -0.602484
H       1.117176    2.276167    1.096104
H       4.411924    2.443119   -0.600752
H       4.666109    1.112957   -2.635435
H       2.782819    3.466476   -2.483152
H       0.434631    3.324918   -1.275420
