18

C      -0.495209    1.376064    0.455298
O      -0.312975   -0.045846    0.468470
C       0.959847   -0.464386    0.592865
O       1.906481    0.281851    0.656489
C       1.000015   -1.978133    0.610588
C       2.333523   -2.753182    0.616824
C       2.469492   -2.294193    2.085482
N       0.971446   -2.673382    2.004757
C       1.482887   -3.895232    1.214764
H       0.043118    1.824760   -0.383357
H      -1.568179    1.536413    0.352240
H      -0.128881    1.818990    1.384808
H       0.201417   -2.359062   -0.031166
H       3.092822   -2.792968   -0.170075
H       3.027992   -2.942049    2.765921
H       2.657775   -1.241739    2.284805
H       0.717600   -4.362120    0.588484
H       1.987795   -4.629557    1.847062
