17

O       0.132442    1.411132    0.071071
C       0.067588   -0.004585    0.140555
C      -1.360564   -0.541793   -0.049155
C      -1.424264   -2.033012    0.010320
C      -1.992565   -2.830266    0.961855
N      -1.743799   -4.138879    0.552511
C      -1.049587   -4.047295   -0.606811
O      -0.668271   -5.165899   -1.246770
N      -0.828949   -2.815871   -0.977396
H      -0.101111    1.669803   -0.826102
H       0.735330   -0.480875   -0.591313
H       0.431331   -0.272740    1.137921
H      -2.009705   -0.103951    0.716135
H      -1.733681   -0.199230   -1.024485
H      -2.538093   -2.612158    1.864171
H      -2.030640   -4.989334    1.005190
H      -0.196658   -4.875048   -2.037325
