19

C      -0.125381    1.496631    0.044779
C       0.031360    0.015810   -0.038326
C       0.054728   -0.799349   -1.101705
C       0.052652   -2.218519   -0.559195
C       0.923150   -2.065272    0.694911
C       0.036294   -0.891779    1.195345
O       0.277620   -0.307704    2.444878
C      -1.340222   -1.620751    1.175660
O      -1.264844   -2.467828    0.029622
H       0.701945    1.960323    0.596366
H      -0.167342    1.950017   -0.948909
H      -1.040104    1.765780    0.587065
H      -0.059481   -0.525732   -2.143391
H       0.261363   -3.029853   -1.253492
H       0.901338   -2.941092    1.348838
H       1.949945   -1.760207    0.483010
H       1.164526    0.066611    2.439313
H      -1.463130   -2.218596    2.087131
H      -2.180770   -0.922669    1.088544
