17

C      -0.112274    1.510164    0.056966
N       0.062467    0.067466   -0.068895
C       0.530369   -0.694099   -1.204019
C       1.438840   -0.151220   -2.297211
C       1.867817    1.273539   -2.427092
N       2.689851    0.297505   -1.687302
C       2.562948    0.191296   -0.262032
O       3.326385    0.686608    0.522433
C       1.326177   -0.638931    0.072874
H       0.821247    2.084170    0.104876
H      -0.721167    1.881271   -0.772654
H      -0.658521    1.703047    0.985774
H      -0.090130   -1.543958   -1.475079
H       1.545382   -0.802435   -3.161956
H       2.307797    1.604081   -3.364177
H       1.360332    2.049959   -1.872555
H       1.393959   -1.401891    0.843691
