20

C       0.226377    1.425192    0.225446
C      -0.208226   -0.007116   -0.106730
C       0.562974   -0.584041   -1.276065
C       1.896223   -1.243106   -1.167534
O       1.991340   -1.971489    0.087436
C       0.958706   -2.812616   -0.329632
N       0.499957   -3.853651    0.196298
C       0.709374   -2.080493   -1.612242
C       0.306016   -2.711371   -2.911925
H       1.284256    1.458287    0.505537
H       0.087076    2.094533   -0.630869
H      -0.355286    1.827811    1.060060
H      -0.073620   -0.645392    0.771113
H      -1.278343   -0.026398   -0.345835
H       0.471041   -0.007246   -2.197456
H       2.827419   -0.983574   -1.653634
H       0.975776   -4.065701    1.075032
H      -0.749640   -3.001147   -2.890699
H       0.445778   -2.016271   -3.745298
H       0.893683   -3.612385   -3.112930
