20

C       0.356415    1.599502    0.015747
C      -0.025797    0.152298   -0.066483
C      -1.046196   -0.488460    0.781828
N       0.369191   -0.872789    0.994879
C       0.749179   -1.814897   -0.125075
C       0.127082   -3.211564   -0.104247
C       0.556617   -4.002118    1.115086
O       0.997798   -5.122652    1.079271
C       0.342657   -0.790368   -1.218545
H       1.408899    1.747912   -0.248866
H      -0.250838    2.199955   -0.672065
H       0.202803    1.984025    1.028030
H      -1.440939    0.082423    1.616899
H      -1.752159   -1.198144    0.356277
H       1.837761   -1.916875   -0.085612
H      -0.968967   -3.139847   -0.088002
H       0.407983   -3.772861   -1.001020
H       0.437393   -3.460398    2.079055
H      -0.476482   -1.065088   -1.890532
H       1.188419   -0.450159   -1.819253
