11

F       0.047014    0.107842    0.073699
C      -0.093551    1.399977    0.005999
N      -1.221259    1.944099    0.164432
C      -1.268348    3.339097    0.073474
N      -2.299161    4.061996    0.202121
N      -0.037780    3.970070   -0.186366
C       1.166421    3.362379   -0.353321
O       2.217411    3.875207   -0.573827
O       1.097356    1.958910   -0.241589
H      -3.108092    3.470795    0.385499
H      -0.048805    4.977955   -0.256316
