20

C      -0.169930    1.572719   -0.110034
C      -0.036424    0.073024    0.003092
C       0.979356   -0.670078   -0.887691
O       1.547720   -1.388025    0.225964
C       0.680022   -0.730068    1.177245
C       1.409068   -0.164514    2.363590
C      -0.609568   -1.530253    1.361315
N      -1.660510   -0.530400    1.673556
C      -1.277282   -0.780453    0.261782
H       0.803818    2.068130   -0.030212
H      -0.603869    1.854945   -1.077521
H      -0.819866    1.959162    0.679620
H       0.566084   -1.340572   -1.652082
H       1.723127   -0.012966   -1.357482
H       2.157443    0.571007    2.053169
H       0.700763    0.312244    3.046205
H       1.929563   -0.966276    2.899915
H      -0.703412   -2.569565    1.652771
H      -2.522203   -1.045423    1.850710
H      -2.009388   -1.122341   -0.461516
