21

C       0.118935    1.520175   -0.262750
C       0.127999    0.025537   -0.018426
C       1.419468   -0.744133    0.098298
C       0.517561   -0.605670    1.302719
C       0.940662    0.216515    2.485039
O       1.789144   -0.612668    3.311255
C       2.304748   -0.014707    4.403860
C       3.156143   -0.983641    5.190507
O       2.101790    1.137473    4.695732
H       0.968210    2.021965    0.209298
H       0.175138    1.730493   -1.336370
H      -0.796980    1.985455    0.118245
H      -0.675517   -0.497453   -0.530988
H       1.506058   -1.713994   -0.378630
H       2.340971   -0.169325    0.104370
H      -0.045888   -1.492441    1.580049
H       1.498137    1.111465    2.197377
H       0.085156    0.544274    3.085538
H       3.949229   -1.389359    4.556375
H       3.588419   -0.472263    6.049668
H       2.547102   -1.827422    5.527646
