16

C      -0.097517    1.548015    0.022284
N       0.086157    0.103088   -0.079727
C       0.640094   -0.566394   -1.212885
C       1.368851   -0.557313    0.131316
C       2.497888    0.213326   -0.516561
O       3.600731    0.518448   -0.180605
C       1.752827    0.261526   -1.914726
C       2.482435   -0.433386   -2.950605
C       3.087067   -1.036977   -3.796546
H       0.716864    2.159497   -0.387519
H      -1.024991    1.813165   -0.493437
H      -0.210955    1.800638    1.079705
H       0.111991   -1.394815   -1.669832
H       1.456541   -1.303635    0.913157
H       1.440206    1.254490   -2.252431
H       3.626129   -1.557349   -4.549067
