17

C       0.021701    1.537972    0.080404
O       1.475667    1.548206   -0.180283
C       1.478399    0.141131   -0.267519
C       1.744718   -1.048524    0.707367
C       0.286383   -0.890286    1.239144
C      -0.016535   -0.003400   -0.007748
C      -0.184058   -0.728917   -1.378378
C       1.364450   -0.918086   -1.408431
O       1.757790   -1.925542   -0.445143
H      -0.202810    1.975909    1.059323
H      -0.519062    2.084385   -0.700291
H       2.582490   -1.251204    1.377610
H      -0.284313   -1.813112    1.366020
H       0.250799   -0.310486    2.167346
H      -0.782923   -1.642081   -1.408238
H      -0.527045   -0.043673   -2.160551
H       1.913123   -1.021598   -2.346734
