17

O      -0.004945    0.128543   -0.216557
C       0.033474    1.320345   -0.072096
C      -1.140418    2.307012   -0.180573
N      -0.599253    3.643991    0.034513
C       0.656536    3.559958    0.268734
C       1.262388    2.177039    0.255755
N       1.442689    4.650083    0.616368
C       2.389991    5.229549   -0.336119
C       1.152224    5.962316    0.070922
H      -1.622486    2.224726   -1.162956
H      -1.912562    2.064240    0.561462
H       1.697664    1.897301    1.221278
H       2.049663    2.049169   -0.495452
H       3.356753    5.506836    0.073065
H       2.414804    4.815253   -1.341398
H       0.338004    6.024313   -0.644510
H       1.220852    6.784390    0.776442
