19

C      -0.523978    1.326045   -0.041850
O      -0.044724    0.000004   -0.093572
C       0.616701   -0.442470    1.080369
C      -0.331361   -0.705571    2.250671
C       1.344824   -1.708215    0.650722
C       2.561844   -1.549769   -0.272649
C       3.338738   -2.085944    0.929691
O       4.459254   -2.350743    1.219223
O       2.217304   -2.213857    1.719556
H       0.277714    2.036055    0.213793
H      -0.903699    1.566468   -1.037646
H      -1.340662    1.450540    0.682465
H       1.374353    0.301073    1.384324
H      -0.798092    0.217359    2.604490
H      -1.121942   -1.400042    1.948706
H       0.223041   -1.144749    3.084371
H       0.632343   -2.481887    0.352682
H       2.596517   -2.193991   -1.152087
H       2.810684   -0.526722   -0.558869
