21

O      -0.531339    0.440445   -0.242637
C      -0.115702    1.571009   -0.196829
C       1.332610    1.936306    0.045020
C       1.939412    2.773024   -1.121220
C       1.799943    4.254945   -0.737724
C       0.422773    4.938832   -0.989271
C       0.159596    4.986601    0.542975
C       1.533271    4.300428    0.806706
C       1.518043    2.843830    1.298038
H      -0.811476    2.429597   -0.336802
H       1.858565    0.985473    0.163962
H       2.998928    2.510013   -1.209281
H       1.478406    2.542391   -2.088113
H       2.648916    4.839244   -1.098754
H       0.493847    5.920990   -1.462338
H      -0.286515    4.342266   -1.570503
H       0.081856    5.996581    0.952107
H      -0.710500    4.421380    0.889839
H       2.219114    4.910724    1.398024
H       0.754010    2.665255    2.062885
H       2.481863    2.595489    1.754993
