15

O       0.023571    0.925736    1.584295
C      -0.025850    1.416020    0.475500
C      -1.376545    1.864955   -0.083916
O      -1.435399    2.015473   -1.479041
C      -0.917730    3.223786   -1.973496
C       0.603763    3.280732   -2.117325
O       1.099779    4.113151   -2.847597
C       1.486283    2.336175   -1.381282
C       1.226739    1.567488   -0.312451
H      -2.102869    1.097015    0.195862
H      -1.665302    2.793888    0.435920
H      -1.333271    3.375966   -2.973357
H      -1.230631    4.081497   -1.354668
H       2.504731    2.370564   -1.760489
H       2.044522    1.007569    0.134695
