20

C      -0.141436    1.525503   -0.002845
C       0.042589    0.003684   -0.081095
C       0.844170   -0.378034   -1.333235
C       0.712419   -0.550081    1.209377
C       0.063735   -0.153915    2.516636
C      -0.273757   -1.256389    3.190909
N       0.083464   -2.410358    2.480067
C       0.685803   -2.096907    1.275909
O       1.086640   -2.904240    0.465982
H       0.821759    2.031227    0.137517
H      -0.577748    1.902427   -0.933462
H      -0.801832    1.820863    0.817094
H      -0.953353   -0.454231   -0.151703
H       1.826472    0.110678   -1.323104
H       1.004955   -1.455298   -1.390496
H       0.319297   -0.047284   -2.235519
H       1.768820   -0.242523    1.191565
H      -0.081634    0.858956    2.857171
H      -0.745386   -1.354615    4.158338
H      -0.085140   -3.359760    2.767565
