20

C       0.369830    1.368289    0.433324
C      -0.180696    0.075234   -0.157657
C       0.790415   -0.593322   -1.132558
C       0.318220   -1.952339   -1.673960
C      -0.165917   -2.901244   -0.565230
O       0.604969   -2.763890    0.638248
C       0.375907   -1.662042    1.406379
N       0.947467   -1.457838    2.513683
O      -0.565038   -0.816142    0.926979
H       1.279855    1.168626    1.006349
H       0.602649    2.084547   -0.361471
H      -0.363182    1.818506    1.106683
H      -1.131201    0.272919   -0.666050
H       0.964604    0.095243   -1.966064
H       1.758443   -0.717576   -0.633006
H      -0.500626   -1.818150   -2.390913
H       1.145904   -2.411422   -2.224551
H      -1.220675   -2.730430   -0.337511
H      -0.039663   -3.945705   -0.858434
H       1.553278   -2.248477    2.734139
