13

O      -0.070663    0.013207   -0.530308
C      -0.017002    1.113565   -0.082431
O      -1.230920    1.729927    0.210816
C      -1.522544    2.767586    1.015540
C      -0.726573    3.512989    1.801860
C       0.703475    3.468930    1.916067
C       1.593498    2.775318    1.171765
C       1.336540    1.851640    0.073469
O       2.200951    1.528938   -0.713265
H      -2.592286    2.944603    0.988242
H      -1.244250    4.254488    2.400083
H       1.119087    4.131639    2.670910
H       2.654491    2.923410    1.346769
