16

C       1.093132    0.868028   -0.145948
N       0.033291    0.189582   -0.893694
C      -0.256273    0.668836    0.467314
C      -0.502927   -0.354686    1.517656
N      -1.020983    0.085292    2.669886
C      -1.218886   -0.827805    3.621987
C      -0.907349   -2.170488    3.434650
N      -0.403454   -2.621013    2.282470
C      -0.207346   -1.711495    1.329317
H       1.915904    0.228730    0.162022
H       1.377309    1.880002   -0.422239
H      -0.380944    0.812809   -1.580487
H      -0.862142    1.562187    0.593337
H      -1.642352   -0.477782    4.560242
H      -1.072631   -2.899576    4.223447
H       0.181774   -2.055052    0.376149
