21

C       0.024885    1.539939   -0.199045
C       0.049209    0.034086   -0.040346
C       1.342205   -0.747688   -0.143579
O       2.564935   -0.129071   -0.393624
C       0.638028   -0.642928    1.194276
C       1.209565    0.115141    2.366008
C       2.178071   -0.646803    3.304013
C       3.169193    0.489808    3.000188
O       2.264447    1.080221    2.032100
H       0.921336    2.013173    0.206408
H      -0.045383    1.810933   -1.257864
H      -0.839525    1.976035    0.313818
H      -0.825748   -0.464075   -0.452549
H       1.299627   -1.707448   -0.651426
H       2.699258    0.523558    0.311290
H       0.118818   -1.536543    1.537814
H       0.412112    0.637527    2.911766
H       1.860548   -0.750287    4.342159
H       2.481796   -1.619724    2.914421
H       3.361932    1.179677    3.829544
H       4.119991    0.203038    2.540066
