19

C       0.021640    1.479755   -0.112897
C       0.009296   -0.019351   -0.020034
O       0.466440   -0.655407   -1.197465
C       0.325221   -2.021802   -0.770767
C       1.188374   -2.042631    0.514490
C       0.651995   -0.773227    1.196025
O      -0.653726   -1.026104    1.765387
C      -1.258227   -0.802471    0.470169
C      -1.172600   -2.078777   -0.382645
H       1.035376    1.847242   -0.299559
H      -0.621665    1.821865   -0.929395
H      -0.340309    1.917254    0.821739
H       0.640008   -2.689212   -1.572295
H       1.050335   -2.926915    1.140338
H       2.245824   -1.940326    0.252754
H       1.325335   -0.272870    1.894744
H      -2.238712   -0.327435    0.540458
H      -1.791790   -2.002143   -1.281481
H      -1.461322   -2.965366    0.185948
