20

C      -0.053703    1.593923    0.004140
C       0.004545    0.057404   -0.021639
C       0.743272   -0.529935   -1.243597
C       2.188900   -0.775838   -0.756641
C       2.022029   -1.251412    0.695894
C       3.234079   -1.144862    1.615772
C       0.808148   -0.452688    1.188341
O       0.540102   -0.228050    2.342273
H       0.941496    2.034127   -0.122718
H      -0.691337    1.969207   -0.801840
H      -0.455067    1.939569    0.960322
H      -1.018591   -0.324560    0.063975
H       0.289110   -1.483196   -1.536794
H       0.700014    0.128164   -2.115901
H       2.729405   -1.490671   -1.382624
H       2.760821    0.160893   -0.770521
H       1.678586   -2.299143    0.673819
H       3.638338   -0.126885    1.610500
H       2.950035   -1.383097    2.644205
H       4.031319   -1.826418    1.304821
