15

O      -0.047483    1.360547    0.039828
C       0.017633    0.019734    0.064830
N       0.040175   -0.668848   -1.065290
O       0.118444   -2.046587   -0.659518
C       0.121056   -2.039911    0.663585
C       0.049489   -0.801341    1.212224
C       0.132632   -0.928451    2.706923
C      -0.058330   -2.481438    2.874950
N       0.269489   -3.085017    1.546298
H      -0.066431    1.630269   -0.888704
H       1.107554   -0.612654    3.097643
H      -0.631969   -0.379240    3.263038
H       0.590438   -2.900706    3.646799
H      -1.099259   -2.701921    3.142036
H      -0.202823   -3.951470    1.324719
