18

C      -0.008587    1.549654   -0.225746
C      -0.071323    0.073209    0.201951
C      -1.441925   -0.516629    0.069267
N      -2.140516   -0.898879    1.135985
N      -3.320792   -1.348014    0.636319
C      -3.394155   -1.267539   -0.716143
N      -4.488940   -1.726517   -1.455727
C      -2.186400   -0.730879   -1.117873
O      -1.876741   -0.415119   -2.422974
H       1.010705    1.939380   -0.140273
H      -0.335828    1.669001   -1.262924
H      -0.662238    2.161383    0.403222
H       0.642557   -0.505609   -0.400955
H       0.242668   -0.034703    1.244441
H      -4.001478   -1.745896    1.259478
H      -4.293982   -1.615072   -2.444617
H      -5.346117   -1.225703   -1.243653
H      -1.049271   -0.846649   -2.659859
