13

N      -0.021576    1.339839    0.007848
C       0.027637   -0.008208    0.000701
N      -1.143041   -0.632991    0.003939
C      -1.213020   -1.967449   -0.002521
O      -2.149361   -2.703012   -0.001212
O       0.108262   -2.700429   -0.013695
C       1.234120   -2.025201   -0.016418
O       2.329653   -2.783556   -0.026385
C       1.289146   -0.666340   -0.009686
H       0.809839    1.901375    0.006284
H      -0.924616    1.782927    0.015239
H       2.044164   -3.708334   -0.029568
H       2.234614   -0.145937   -0.012225
