19

O       0.238429    1.322095   -0.289694
C       0.039917   -0.000914    0.107277
C      -0.337721   -0.303361    1.576675
O      -1.503432   -1.053648    1.164520
C      -1.316545   -0.701023   -0.224072
C      -2.415591    0.204541   -0.739665
C      -3.857154   -0.163134   -0.318138
C      -3.809411    1.141600    0.500463
O      -2.482399    1.450261    0.010511
H      -0.553918    1.817451   -0.034286
H       0.907280   -0.566250   -0.240533
H       0.359788   -0.918396    2.156503
H      -0.605204    0.592263    2.150754
H      -1.255751   -1.595637   -0.859974
H      -2.263836    0.401445   -1.808302
H      -4.583995   -0.176709   -1.130626
H      -3.936671   -1.074906    0.272958
H      -4.529140    1.917809    0.218476
H      -3.815861    1.012288    1.587529
