17

O       0.014029   -0.031878    0.083749
C       0.074780    1.173132    0.116549
C       1.343685    1.946985    0.062511
C       1.834463    3.065676    1.053539
C       2.958597    2.963621   -0.028847
C       2.802942    1.411421    0.055723
C       1.818591    2.920747   -1.053054
C       1.675835    2.986366   -2.497267
O       1.112634    3.991433   -1.605366
H      -0.846116    1.795858    0.181695
H       1.256090    3.990508    1.077474
H       2.097869    2.715599    2.054339
H       3.883244    3.536742   -0.078231
H       3.134182    0.954421    0.989741
H       3.110625    0.828150   -0.814069
H       2.499514    3.337796   -3.115906
H       0.941601    2.365158   -3.007039
