17

O       0.132267    1.386976    0.141309
C       0.034678   -0.003303    0.090640
C      -1.410364   -0.454926    0.029944
N      -2.324933    0.426323   -0.021092
C      -3.705747   -0.046305   -0.009192
C      -3.890152   -1.392923   -0.723321
C      -2.853688   -2.412256   -0.287797
O      -3.009026   -3.610009   -0.264506
N      -1.634656   -1.828153    0.043922
H      -0.786574    1.702948    0.088706
H       0.562261   -0.408924   -0.789613
H       0.506699   -0.463283    0.975977
H      -4.028536   -0.129986    1.039002
H      -4.342449    0.714000   -0.469528
H      -4.883245   -1.816216   -0.561402
H      -3.764033   -1.259611   -1.806196
H      -0.870843   -2.467408    0.217958
