18

C       0.070709    1.413279    0.080626
N       0.066967   -0.034806   -0.004368
C       0.665317   -0.669094   -1.073419
O       1.061463   -0.091095   -2.072811
N       0.772490   -2.036633   -0.927434
C      -0.133660   -2.956878   -0.217130
C       0.207842   -4.044379   -1.271810
C       0.971979   -2.946046   -2.064090
H       0.909237    1.800367    0.675062
H       0.164096    1.800859   -0.934153
H      -0.864960    1.771470    0.520985
H       0.007741   -0.547426    0.860716
H       0.158729   -3.177449    0.816293
H      -1.180688   -2.627898   -0.224948
H       0.847939   -4.839796   -0.888185
H      -0.646817   -4.488712   -1.781948
H       0.473799   -2.599854   -2.975721
H       2.021286   -3.150696   -2.295044
