21

C      -0.073133    1.555736    0.055298
C       0.015844    0.018730   -0.055314
C       0.671372   -0.370627   -1.304180
C       1.236856   -0.670443   -2.322365
C       0.749991   -0.573624    1.157987
C       0.060391   -0.463347    2.534076
O       0.149584   -1.882274    2.749549
C       0.719839   -2.106418    1.433410
C      -0.150128   -3.016902    0.586654
H       0.926807    1.999570    0.070511
H      -0.617137    1.974829   -0.794758
H      -0.593825    1.843838    0.973657
H      -1.008989   -0.375967   -0.068445
H       1.724336   -0.941572   -3.225974
H       1.771053   -0.183482    1.167521
H       0.595451    0.107898    3.302017
H      -0.983510   -0.117953    2.505000
H       1.724103   -2.540592    1.524652
H      -1.171343   -2.633858    0.502509
H       0.267392   -3.127293   -0.418303
H      -0.202289   -4.005438    1.053444
