20

C      -0.001014    1.582589    0.067926
C      -0.005005    0.054110    0.142421
C      -1.392432   -0.554098   -0.135022
C      -1.416874   -2.050730   -0.054235
C      -1.613469   -2.921982   -1.073901
O      -1.550423   -4.221867   -0.618356
C      -1.313391   -4.156183    0.711234
N      -1.143499   -5.381133    1.343416
C      -1.220898   -2.861236    1.125169
H       0.995455    1.989321    0.266798
H      -0.311215    1.932134   -0.923372
H      -0.690565    2.017777    0.800260
H       0.712093   -0.358636   -0.577351
H       0.339302   -0.270100    1.132099
H      -2.111972   -0.132600    0.580760
H      -1.731247   -0.238637   -1.129511
H      -1.809744   -2.808736   -2.126381
H      -1.706666   -6.112176    0.927027
H      -1.306676   -5.330086    2.339393
H      -1.042179   -2.518479    2.132231
