23

C      -0.049536    1.561052   -0.145809
C       1.491929    1.545523    0.045218
C       1.390613    0.098922    0.612175
C      -0.066883    0.021299    0.055116
C       2.390741   -0.936360    0.094840
C       2.128257   -2.307814    0.734921
C       2.074134   -2.173291    2.258654
O       1.124430   -1.202669    2.667709
C       1.418186    0.080870    2.143489
H      -0.565404    2.095563    0.656109
H      -0.424227    1.939930   -1.099239
H       2.033073    1.571954   -0.905694
H       1.925253    2.303935    0.705401
H      -0.821930   -0.394089    0.726910
H      -0.114064   -0.520625   -0.894578
H       2.341346   -1.000928   -0.998401
H       3.409668   -0.605712    0.345012
H       1.170359   -2.706564    0.379847
H       2.904717   -3.028444    0.453795
H       1.774142   -3.112083    2.733261
H       3.073801   -1.904027    2.644722
H       2.411227    0.416895    2.494076
H       0.668612    0.759506    2.563371
