19

C       0.065600    1.606758    0.002896
C      -0.091874    0.070049   -0.033435
C       0.440094   -0.551515    1.276715
C      -1.579934   -0.302355   -0.241316
O      -2.383962    0.217301    0.821406
C      -3.085901   -0.646738    1.581141
O      -3.773705   -0.294540    2.490164
C       0.638517   -0.482595   -1.178113
C       1.219068   -0.945172   -2.123792
H       1.114349    1.877633    0.148170
H      -0.275441    2.056062   -0.934002
H      -0.523723    2.022257    0.823934
H      -0.103026   -0.148170    2.135709
H       0.332146   -1.640326    1.269898
H       1.500644   -0.319472    1.401069
H      -1.947716    0.134908   -1.173869
H      -1.689916   -1.391801   -0.302099
H      -2.953176   -1.699756    1.264146
H       1.742423   -1.348733   -2.955326
