14

N      -0.090577    1.311131    0.011182
C      -0.072264    0.047935    0.003847
O       1.069855   -0.740024   -0.006633
C       0.755692   -2.155873   -0.013098
C      -0.737567   -2.186429   -0.005472
C      -1.166770   -0.902561    0.004123
O      -2.511009   -0.813104    0.011678
C      -2.947897   -2.107441    0.006538
C      -1.910058   -2.998567   -0.003980
H       0.860038    1.683078    0.008347
H       1.206713   -2.603303   -0.906401
H       1.215992   -2.613476    0.870264
H      -4.018542   -2.231328    0.011423
H      -1.998613   -4.073302   -0.009667
