21

C       0.011534    1.513937    0.153086
C      -0.020402   -0.004412    0.087601
C       0.985851   -0.716348   -0.888338
C       1.358395   -1.723338    0.229796
C       2.827419   -2.028268    0.438206
O       2.940731   -2.846373    1.592381
C       0.653997   -0.804473    1.260632
C      -1.417476   -0.525558   -0.150280
O      -2.403731    0.156565   -0.269086
H       1.030726    1.870522    0.330930
H      -0.352733    1.955068   -0.779670
H      -0.630008    1.883922    0.958382
H       0.578651   -1.122119   -1.818546
H       1.812587   -0.044592   -1.139447
H       0.820742   -2.669548    0.114543
H       3.232328   -2.532139   -0.455472
H       3.383824   -1.083498    0.561054
H       3.872699   -3.023969    1.749088
H       1.361622   -0.171505    1.803651
H      -0.008674   -1.280000    1.987647
H      -1.488058   -1.637959   -0.211559
