17

C      -0.054325    1.618061   -0.088839
C       0.070734    0.111665    0.042274
N       1.104545   -0.583362   -0.805333
C       2.351582   -0.635177    0.046710
C       2.094892    0.032576    1.396492
C       0.669717   -0.569321    1.282758
O      -0.148713   -0.760575    2.377220
C       1.271394   -1.626784    0.239246
H       0.898163    2.131423    0.065187
H      -0.411408    1.876562   -1.090685
H      -0.776340    2.003832    0.638623
H      -0.885945   -0.366654   -0.194594
H       3.287948   -0.736211   -0.485236
H       2.671696   -0.471766    2.179543
H       2.198767    1.116232    1.504954
H       0.382613   -1.075084    3.116141
H       1.182202   -2.691405    0.066479
