17

O      -0.029586    1.376016   -0.047482
C       0.016206   -0.020649   -0.003914
C      -0.432186   -0.803230   -1.217759
C      -1.298487   -0.718862    0.037341
N      -1.428153   -1.825791    0.940022
C      -0.350620   -2.578370    1.371242
O      -0.476769   -3.678237    1.877969
N       0.884055   -1.994870    1.154098
C       1.084650   -0.574324    0.924056
H       0.673293    1.678556   -0.633878
H      -0.755433   -0.226253   -2.077182
H       0.057480   -1.745769   -1.435600
H      -2.182436   -0.093576   -0.011354
H      -2.271629   -2.376821    0.881986
H       1.627911   -2.505165    1.604183
H       2.083772   -0.429732    0.493627
H       1.038356    0.015457    1.852317
