19

C      -0.322206    1.515381   -0.185655
C       0.138460    0.059606    0.002888
C       0.934042   -0.463543   -1.143946
C       2.216194   -0.908805   -1.255388
C       2.403408   -1.288551   -2.628199
N       3.589995   -1.736473   -3.224516
C       1.219444   -1.046394   -3.258281
N       0.860797   -1.228066   -4.594512
O       0.309135   -0.524942   -2.349950
H       0.536442    2.186466   -0.284658
H      -0.930775    1.613016   -1.088764
H      -0.920969    1.847345    0.668073
H       0.752376   -0.027476    0.905257
H      -0.742097   -0.577764    0.160616
H       2.945599   -0.959791   -0.461091
H       4.063742   -2.440863   -2.672493
H       3.406860   -2.099199   -4.153320
H       0.702094   -0.354385   -5.088650
H       0.029869   -1.801572   -4.703024
