17

N      -0.187845    1.434165   -0.122593
C      -0.067753    0.179990   -0.209250
C      -1.274177   -0.727182   -0.091796
N      -1.110255   -1.943253   -0.884198
C       0.107095   -2.636668   -0.490591
C       1.270145   -1.729738   -0.868860
O       1.161185   -0.420510   -0.293021
C       2.621019   -2.276226   -0.434879
O       2.924498   -3.435384   -0.535914
H       0.730471    1.881446   -0.163657
H      -1.406184   -0.937762    0.987546
H      -2.145735   -0.164829   -0.428403
H      -1.918549   -2.542743   -0.764339
H       0.156531   -2.864698    0.590535
H       0.210772   -3.576458   -1.037260
H       1.283443   -1.624331   -1.964755
H       3.310208   -1.507574   -0.023500
