13

N      -0.012727   -1.076739    0.044564
C      -0.030458    0.079103    0.049658
C      -0.027162    1.516925    0.019593
O      -0.699264    2.277676    1.059473
C      -0.138210    3.287581    0.162820
C       1.186226    2.505879   -0.109631
C       1.019552    2.618009   -1.639539
C      -0.436369    2.487886   -1.145235
H      -0.298142    4.337713    0.395142
H       2.080779    2.493737    0.511035
H       1.293740    3.576536   -2.085801
H       1.409180    1.789911   -2.235622
H      -1.375673    2.455399   -1.695008
