18

N      -0.106568    1.457673    0.213311
C       0.050575    0.019046    0.054360
C       0.975469   -0.501314    1.152610
O       0.384605   -0.305452    2.464276
C       0.180056   -1.722553    2.653161
C       0.992082   -2.056435    1.375389
N       0.472988   -2.888839    0.322923
C       2.306411    0.114378    1.075512
N       3.386561    0.521147    1.018304
H      -0.702110    1.834888   -0.515146
H      -0.554506    1.650693    1.103791
H      -0.890298   -0.554896    0.111571
H       0.501925   -0.197865   -0.919015
H       0.582270   -2.069439    3.610736
H      -0.882562   -1.995605    2.587492
H       2.003685   -2.387478    1.613615
H       0.786201   -3.846709    0.417846
H      -0.540318   -2.893495    0.299685
