20

C      -0.068404    1.573155    0.048926
C       0.000635    0.033748    0.050751
C       0.749215   -0.490882    1.291286
C      -1.366995   -0.568822   -0.050291
C      -1.984180   -1.367223   -0.970639
C      -1.455845   -1.929728   -2.253030
C      -3.283622   -1.545553   -0.411695
N      -3.438853   -0.921579    0.727234
O      -2.218027   -0.296417    0.962469
H       0.939172    1.998429    0.087894
H      -0.564264    1.947169   -0.851503
H      -0.627004    1.934795    0.916950
H       0.549334   -0.286563   -0.842524
H       0.222130   -0.208826    2.207206
H       0.833474   -1.581330    1.272326
H       1.758191   -0.069145    1.332393
H      -1.479885   -3.025180   -2.252450
H      -2.045957   -1.594475   -3.113246
H      -0.420693   -1.624275   -2.426077
H      -4.111704   -2.114924   -0.812729
