20

C      -0.670004    1.475766    0.100297
C      -0.173703    0.057011    0.006934
C      -0.020190   -0.567265   -1.162529
C       0.445935   -1.982501   -1.353684
C       0.942119   -2.637697   -0.085724
N       2.071500   -1.983696    0.602753
C       0.733166   -1.986998    1.230539
C       0.129163   -0.599707    1.341194
O       0.987550    0.222466    2.134918
H       0.047217    2.102567    0.638517
H      -0.845196    1.904748   -0.889666
H      -1.609876    1.527045    0.666173
H      -0.261319   -0.027726   -2.076928
H      -0.379243   -2.585056   -1.761594
H       1.237104   -2.015039   -2.115761
H       0.949339   -3.725692   -0.101016
H       2.663925   -2.684338    1.039053
H       0.594267   -2.617855    2.104780
H      -0.804131   -0.664872    1.916977
H       1.859698    0.124428    1.728658
