14

O      -0.157439   -0.005047    0.005718
C      -0.032254    1.189197   -0.032961
N       1.180003    1.861039   -0.002649
C       1.470555    3.319916   -0.034926
C       2.990768    2.947085   -0.015533
C       2.541493    1.476999    0.041261
O       3.073445    0.413988    0.104816
C       0.973379    4.029499   -1.199322
C       0.557382    4.622465   -2.157763
H      -0.878139    1.901476   -0.100375
H       1.144651    3.816498    0.884565
H       3.530484    3.209511   -0.925750
H       3.543834    3.288633    0.860274
H       0.190812    5.143953   -3.007977
