21

C       0.225956    0.845109   -0.656883
N      -0.451984    0.102303    0.413389
C       0.395419   -0.539789    1.338657
C       0.934305   -0.126327    2.539651
C       1.690879   -1.209380    3.076341
C       2.450394   -1.229582    4.368528
C       1.592034   -2.240614    2.170192
N       0.797126   -1.841724    1.119610
C       0.432874   -2.651595   -0.021629
H       0.802570    0.150675   -1.275169
H      -0.525109    1.318530   -1.296610
H       0.915833    1.618113   -0.285670
H      -1.091814    0.713317    0.905501
H       0.795192    0.847987    2.985875
H       1.794618   -1.056239    5.230453
H       2.943791   -2.194543    4.520191
H       3.226454   -0.455144    4.399578
H       2.022200   -3.230319    2.187168
H       0.246296   -3.680699    0.297183
H      -0.478315   -2.239815   -0.459181
H       1.218869   -2.662466   -0.787148
