17

N       0.090229    1.126104    0.505960
C      -0.096317    0.076929   -0.346225
O       0.698457   -0.217047   -1.219285
C      -1.366615   -0.702859   -0.131883
C      -2.472633   -0.939783   -1.207428
C      -2.919909   -1.747863    0.044039
C      -1.447106   -2.233338    0.163916
C      -2.518178   -0.515689    0.905924
H       0.923106    1.683656    0.409226
H      -0.574546    1.357525    1.222008
H      -3.078095   -0.070155   -1.477668
H      -2.168943   -1.511413   -2.086513
H      -3.822573   -2.349203    0.151857
H      -1.074538   -2.891836   -0.623080
H      -1.110012   -2.552552    1.154036
H      -2.273240   -0.712093    1.954309
H      -3.138486    0.379349    0.797305
