15

O       0.011207    1.474715    0.228680
C      -0.149294    0.103040    0.545941
C      -1.003349   -0.612004   -0.506630
C      -1.188121   -2.086389   -0.294429
N      -2.063691   -2.731449   -1.073148
C      -2.140375   -4.027584   -0.818613
N      -1.443509   -4.685581    0.117131
N      -0.604879   -3.984694    0.855203
N      -0.461811   -2.685310    0.663208
H      -0.837024    1.913184    0.349008
H       0.854645   -0.326629    0.570236
H      -0.578856   -0.040887    1.547171
H      -2.001777   -0.160019   -0.570606
H      -0.555173   -0.463274   -1.497580
H      -2.827091   -4.627268   -1.410860
