17

O       0.119710    1.450667   -0.014873
C       0.013015    0.067244   -0.012623
C      -1.309812   -0.669152    0.055042
C      -2.628546    0.070867   -0.030766
N      -2.555656    1.145209   -1.027053
C      -1.998335    0.947636   -2.295726
O      -2.309076    1.635163   -3.249341
N      -1.048820   -0.042095   -2.353601
C      -0.492956   -0.719364   -1.217154
H      -0.734055    1.820464   -0.281715
H       0.839339   -0.374967    0.536584
H      -1.354486   -1.567608    0.662824
H      -3.424975   -0.649058   -0.272968
H      -2.882319    0.524223    0.934188
H      -3.373357    1.735598   -1.094764
H      -0.494028    0.000332   -3.194843
H       0.005238   -1.644385   -1.488172
