17

O      -0.174101   -0.072498   -0.381453
C       0.006099    1.081325   -0.090513
C       1.335346    1.797107   -0.169013
C       1.266631    3.018486   -1.119845
C       2.523324    3.823424   -1.149615
C       2.829798    5.077434   -0.684187
N       4.146315    5.394144   -0.930627
C       4.642297    4.344580   -1.540558
N       3.706545    3.363405   -1.698458
H      -0.837779    1.722565    0.258927
H       1.595105    2.152882    0.836700
H       2.097628    1.079940   -0.486479
H       1.006354    2.670173   -2.128162
H       0.451479    3.677987   -0.803092
H       2.167705    5.771349   -0.187367
H       5.657576    4.232665   -1.891180
H       3.846936    2.472261   -2.145018
