20

C       0.418505    1.379935   -0.028897
C       0.112526   -0.104021    0.172633
O       0.310943   -0.494496    1.530386
C      -1.294988   -0.466107   -0.314327
N      -1.467331   -1.912587   -0.350367
C      -1.917610   -2.567610    0.860501
C      -2.836883   -2.465897   -0.321840
C      -3.996413   -1.618228   -0.263932
C      -4.978322   -0.922499   -0.255907
H       1.410752    1.614339    0.365293
H       0.391195    1.653680   -1.088336
H      -0.314722    2.006234    0.495618
H       0.830520   -0.708645   -0.392233
H      -0.217068    0.094431    2.081453
H      -2.040790    0.038204    0.325007
H      -1.437194   -0.086644   -1.332894
H      -1.446414   -3.517459    1.096871
H      -2.160394   -1.948009    1.720178
H      -2.953599   -3.340243   -0.958178
H      -5.847080   -0.312227   -0.238659
