19

C      -0.007192   -1.217544   -0.051925
C      -0.015491   -0.015187   -0.009426
C      -0.021229    1.430644    0.042527
C      -0.221504    2.153843    1.421725
C       0.652299    3.286958    0.817745
C       1.339470    2.202250   -0.048982
O      -0.089268    4.174594   -0.005863
C      -1.211577    3.557850   -0.632690
C      -0.977546    2.075458   -0.992827
H       0.002845   -2.278678   -0.087195
H      -1.237143    2.381237    1.751659
H       0.311488    1.630340    2.217466
H       1.258747    3.906065    1.480261
H       2.133715    1.678917    0.487987
H       1.682446    2.503175   -1.041587
H      -2.083728    3.634185    0.032007
H      -1.433703    4.151764   -1.523706
H      -0.538516    1.966757   -1.990092
H      -1.939751    1.553607   -1.002055
