21

C       0.061716    1.411488   -0.419218
C       0.030869   -0.057464   -0.034158
O       0.482520   -0.848695   -1.138081
C       1.156464   -2.031918   -0.676399
C       2.558394   -2.022141   -1.286481
O       2.497607   -1.884666   -2.690910
C       1.134396   -1.963684    0.862169
C       0.919182   -0.468199    1.148781
O       2.127420    0.278275    1.090994
H       1.085371    1.730487   -0.620583
H      -0.547196    1.573968   -1.312539
H      -0.343799    2.026343    0.390272
H      -1.003152   -0.350485    0.213708
H       0.609319   -2.904195   -1.056260
H       3.136199   -1.209389   -0.820724
H       3.065395   -2.971369   -1.076797
H       1.917659   -1.128860   -2.846939
H       0.300635   -2.545188    1.267395
H       2.055059   -2.342959    1.316939
H       0.405299   -0.298090    2.104940
H       2.708727   -0.040043    1.788223
