13

N      -0.019200    1.394680    0.162632
C       0.060919    0.022865    0.038637
N      -1.046188   -0.705498    0.002646
O      -0.632781   -2.088972   -0.030451
C       0.683798   -2.041876   -0.034426
C       1.231394   -0.796264    0.007295
C       2.654052   -1.027874    0.013243
C       2.799289   -2.378395   -0.028090
O       1.565975   -3.038209   -0.056888
H       0.691170    1.903259   -0.343302
H      -0.947435    1.755887   -0.013930
H       3.461539   -0.313898    0.046457
H       3.653519   -3.032959   -0.042572
