13

N       0.078770    1.344264    0.164560
C      -0.049016   -0.012574    0.053858
C      -1.138184   -0.865309    0.020052
C      -2.534240   -0.499506    0.013965
O      -3.465182   -1.279899   -0.019542
C      -0.572523   -2.196263   -0.019860
C       0.764214   -2.053612   -0.010553
O       1.101210   -0.704905    0.035625
H       0.954668    1.718881   -0.169903
H      -0.726741    1.884167   -0.111040
H      -2.726562    0.601195    0.042149
H      -1.136120   -3.114388   -0.053899
H       1.603356   -2.726726   -0.029890
