18

C       0.145548    1.396840    0.247813
C      -0.070368   -0.088793    0.042939
C      -1.423102   -0.613484    0.480793
C       0.618773   -0.782981   -1.133387
C       1.435954   -0.054893   -2.063869
C       2.085601    0.544421   -2.878426
N       1.043268   -0.998051    0.242179
C       2.288207   -0.746179    0.787279
O       3.342714   -1.030236    0.277502
H       1.116748    1.719254   -0.132953
H      -0.630743    1.964373   -0.275107
H       0.081532    1.650914    1.311179
H      -2.226195   -0.109784   -0.066785
H      -1.500394   -1.689610    0.309020
H      -1.577112   -0.428355    1.549473
H       0.096268   -1.634275   -1.566881
H       2.680859    1.064252   -3.588043
H       2.199960   -0.319087    1.806041
