20

C       1.047013    1.305935   -1.044167
C       0.644591   -0.052857   -0.507051
N       1.502121   -0.918675    0.275835
C       2.854003   -0.528440    0.659333
C       0.346811   -0.292556    0.958113
C       0.474665    0.795834    2.011832
O       0.800025    0.263238    3.282242
C      -0.691421   -1.318293    1.273260
O      -1.394269   -1.295584    2.258642
H       1.622540    1.906741   -0.339641
H       1.649180    1.183316   -1.950900
H       0.152620    1.874950   -1.316604
H       0.031778   -0.610995   -1.217709
H       3.037587    0.552040    0.714274
H       3.071621   -0.957235    1.640429
H       3.550533   -0.953051   -0.070182
H       1.266368    1.503885    1.763050
H      -0.470177    1.359237    2.042098
H       0.043671   -0.279873    3.538977
H      -0.759745   -2.140048    0.528880
