23

C      -0.385740    1.616341    0.094806
C      -0.079432    0.121319    0.062155
C       0.436452   -0.514269   -1.238584
C       1.825649   -0.124426   -1.598452
O       2.284957    1.196781   -1.467494
C       1.659510   -1.105097   -0.478174
C       1.153952   -0.490669    0.845055
C       2.094234    0.467210    1.581015
C       0.697301   -1.598588    1.799657
H       0.462854    2.213982   -0.238805
H      -1.232434    1.840788   -0.564294
H      -0.666219    1.934940    1.105450
H      -0.976943   -0.419577    0.381199
H      -0.205815   -0.993984   -1.969444
H       2.163403   -0.602084   -2.520661
H       3.234422    1.161377   -1.309512
H       2.081771   -2.103695   -0.543805
H       1.610380    0.875097    2.476412
H       2.995412   -0.063115    1.912095
H       2.401586    1.302043    0.951215
H       1.556434   -2.144164    2.208358
H       0.136706   -1.179634    2.643164
H       0.053664   -2.323807    1.290779
