20

C       0.388198    1.818114    0.444431
C       0.168027    0.328538    0.239553
C       0.706233   -0.455294   -0.990166
C       1.262337   -1.463332    0.015751
C       2.229565   -0.857512    0.948151
C       3.272915    0.185660    0.583315
C       3.626197    1.081038    1.752783
O       3.625545    2.284641    1.716665
N       0.787166   -0.650139    1.220278
H       1.426513    2.139407    0.354012
H      -0.203831    2.378056   -0.288362
H       0.040262    2.107744    1.441784
H      -0.906699    0.138651    0.322249
H      -0.083706   -0.855717   -1.627345
H       1.443590    0.041227   -1.628425
H       1.106849   -2.536819   -0.037671
H       2.606386   -1.557020    1.694319
H       4.188885   -0.362016    0.312973
H       2.998142    0.806044   -0.268923
H       3.901921    0.536834    2.685369
