13

O      -0.006754    1.442795    0.170664
C       0.024220    0.046462    0.060855
C      -1.384426   -0.591487   -0.058880
N      -0.972171   -1.141317   -1.369869
C      -1.656690   -1.935543   -2.275705
O      -1.220370   -2.309070   -3.331310
C       0.293466   -0.517523   -1.358994
O       1.175771   -0.438532   -2.157632
H       0.850468    1.781176   -0.112849
H       0.653682   -0.427006    0.826853
H      -1.630866   -1.352264    0.684426
H      -2.177183    0.156303   -0.129281
H      -2.667924   -2.189786   -1.898993
