17

O       0.020698    1.156512   -0.444111
C       0.072462   -0.156561    0.058603
C      -1.317189   -0.836525    0.099091
C      -1.229439   -2.295760    0.608419
N      -2.503729   -2.985042    0.601462
C      -3.003703   -3.527926   -0.543630
O      -2.419695   -3.531679   -1.606614
C      -2.225515   -0.050760    0.936636
N      -2.910301    0.578297    1.624356
H      -0.459540    1.704590    0.187040
H       0.710609   -0.725705   -0.623911
H       0.527628   -0.198733    1.060098
H      -1.719681   -0.854489   -0.919278
H      -0.551909   -2.841986   -0.052337
H      -0.821957   -2.316877    1.622800
H      -3.099101   -2.924032    1.412120
H      -4.002036   -3.980513   -0.392657
