22

C      -0.253113    1.514949   -0.066819
C      -0.024548    0.006552   -0.043436
O      -1.229123   -0.692186   -0.298359
C       1.232293   -0.451644   -0.850112
C       2.017116   -0.523882    0.484829
C       0.665302   -0.510672    1.243352
N       2.840607   -1.701789    0.675560
C       4.246297   -1.573686    0.298834
C       3.846848   -1.620837    1.731763
H       0.660463    2.065023    0.181060
H      -0.572728    1.843557   -1.064269
H      -1.030202    1.792096    0.652465
H      -1.618946   -0.335103   -1.104040
H       1.076076   -1.456961   -1.247757
H       1.610715    0.207584   -1.636220
H       2.585689    0.404906    0.664698
H       0.581018    0.098183    2.146722
H       0.340852   -1.532209    1.452293
H       4.688397   -2.441664   -0.181616
H       4.584904   -0.614627   -0.090883
H       3.919330   -0.693553    2.298267
H       3.990924   -2.524100    2.317412
