20

C      -0.677729    1.347381   -0.724564
C      -0.419602   -0.056010   -0.435836
C      -0.220319   -1.218759   -0.188752
C       0.097826   -2.623905    0.039622
C       1.119036   -3.052358   -1.017599
C       0.198665   -3.118462    1.523701
C      -1.320668   -2.858570    1.580389
N      -1.166636   -3.553592    0.209808
C      -0.225322   -4.497288    0.984635
H      -0.135380    1.677723   -1.617274
H      -1.744572    1.524177   -0.900750
H      -0.369253    1.989219    0.108181
H       1.966208   -2.361042   -1.000783
H       1.505179   -4.062144   -0.878173
H       0.660298   -2.992732   -2.008827
H       0.972106   -2.866089    2.258424
H      -1.906349   -3.449387    2.288267
H      -1.678116   -1.831443    1.517219
H       0.455387   -5.079282    0.366126
H      -0.766645   -5.151878    1.671511
