22

C      -0.061624    1.554033    0.146896
C      -0.033551    0.025883   -0.001614
C      -1.459739   -0.541320    0.013770
C       0.706548   -0.432127   -1.270607
C       2.194903   -0.084714   -1.304427
C       2.939258   -0.684518   -2.492588
C       4.395570   -0.275986   -2.644295
O       2.406662   -1.440640   -3.272362
H       0.942678    1.983134    0.217426
H      -0.563829    2.018463   -0.710597
H      -0.607303    1.849731    1.049096
H       0.501364   -0.387756    0.866646
H      -2.039758   -0.162120   -0.836172
H      -1.455005   -1.634400   -0.049887
H      -1.990331   -0.258970    0.929138
H       0.606750   -1.517390   -1.379268
H       0.216340   -0.003696   -2.154449
H       2.364347    0.999936   -1.314642
H       2.698381   -0.439489   -0.392034
H       4.947482   -0.440650   -1.712531
H       4.857181   -0.840627   -3.455208
H       4.461002    0.795674   -2.866057
