18

O      -0.112008    1.479186    0.058152
C       0.021268    0.065092    0.047736
C      -1.379599   -0.529698   -0.019070
C      -1.376698   -2.061736   -0.008692
O      -0.715571   -2.583824    1.135262
C      -2.811675   -2.620110   -0.142358
C      -2.867394   -4.074384   -0.202645
C      -2.908884   -5.273580   -0.264708
H       0.765837    1.861117    0.147400
H       0.607770   -0.274789   -0.821911
H       0.531240   -0.302835    0.948566
H      -1.962635   -0.154664    0.833693
H      -1.878610   -0.163733   -0.924242
H      -0.786395   -2.431677   -0.855524
H      -1.231468   -2.342531    1.913245
H      -3.409741   -2.258461    0.706996
H      -3.276440   -2.193392   -1.040276
H      -2.943567   -6.333478   -0.314560
