20

C      -0.232254    1.561294   -0.076945
C       0.090130    0.068371    0.068935
C       0.726995   -0.517007   -1.176147
O       1.946891    0.080774   -1.550918
C       0.698324   -1.997201   -1.474671
C       0.041444   -3.015938   -0.569416
C      -0.128290   -1.024927   -2.310591
O      -1.516859   -0.961180   -2.141243
H       0.671753    2.150762   -0.266282
H      -0.934269    1.729551   -0.900024
H      -0.685748    1.954005    0.837833
H       0.774291   -0.083788    0.912775
H      -0.830771   -0.474362    0.292633
H       1.753191    0.967626   -1.874297
H       1.603911   -2.338822   -1.968483
H      -0.953858   -2.694982   -0.252839
H      -0.070310   -3.974787   -1.088025
H       0.639868   -3.197392    0.329502
H       0.225694   -0.810447   -3.319163
H      -1.903613   -1.751779   -2.532734
