22

C      -0.047734    1.547076   -0.093406
C      -0.007749    0.028114    0.044094
O       0.720693   -0.382261    1.199257
C      -1.411466   -0.594709    0.048585
O      -2.039895   -0.220004   -1.170298
C      -1.366114   -2.117121    0.206680
N      -2.716932   -2.666555    0.101326
C      -3.087878   -3.249274   -1.191529
C      -2.813480   -4.117010   -0.016783
H       0.967716    1.951800   -0.115885
H      -0.573207    1.836433   -1.005672
H      -0.578947    1.996817    0.756002
H       0.543293   -0.397219   -0.803707
H       0.361939    0.098139    1.953850
H      -1.973394   -0.181259    0.905425
H      -2.932378   -0.580201   -1.143114
H      -0.683161   -2.547235   -0.547488
H      -0.962594   -2.358665    1.193697
H      -4.110272   -3.074496   -1.516304
H      -2.346183   -3.230067   -1.987315
H      -1.886128   -4.687261   -0.026381
H      -3.628400   -4.583262    0.529663
