17

N       0.288777    1.427214    0.102547
C       0.025123    0.068587    0.032081
C      -1.097146   -0.693526   -0.099858
C      -2.533249   -0.290057   -0.151244
C      -3.122405   -0.344625   -1.571403
O      -4.486535    0.040707   -1.609950
N      -0.695390   -2.029146   -0.223745
C       0.587978   -2.001401   -0.149027
O       1.113877   -0.750496    0.004438
H       1.020770    1.656228    0.764508
H      -0.542735    1.970023    0.293241
H      -3.117310   -0.956805    0.497147
H      -2.665013    0.725428    0.242062
H      -2.591550    0.361230   -2.218740
H      -2.968496   -1.350116   -1.988861
H      -4.994044   -0.630782   -1.143101
H       1.292071   -2.816788   -0.179556
