22

C       0.004510    1.599652    0.092826
C       0.082516    0.082365    0.030915
C       1.131459   -0.587478   -0.901174
C       1.366293   -1.667536    0.190929
C       2.781423   -2.176222    0.427530
C       2.880832   -3.146300    1.598175
O       4.238236   -3.544513    1.726929
C       0.718020   -0.694042    1.218483
H       0.988102    2.034926    0.304151
H      -0.348488    2.020387   -0.855677
H      -0.682361    1.932424    0.879469
H      -0.910435   -0.330430   -0.183078
H       0.807247   -0.917836   -1.891730
H       2.015839    0.049637   -1.019758
H       0.692512   -2.515940    0.016276
H       3.156817   -2.679112   -0.472911
H       3.455674   -1.331336    0.617638
H       2.521070   -2.657630    2.518335
H       2.226596   -4.015331    1.416062
H       4.305443   -4.145252    2.474639
H       1.482288   -0.088258    1.720365
H       0.050050   -1.107860    1.978859
