13

O       0.033098    1.346147    0.115147
C       0.052705   -0.004278    0.057265
N       0.070936   -0.571199   -1.140275
C       0.090478   -1.907828   -1.213287
C       0.092628   -2.731329   -0.096952
O       0.112877   -4.086441   -0.219226
C       0.073002   -2.094282    1.147487
F       0.074742   -2.874555    2.238127
C       0.052631   -0.722551    1.258667
H       0.036642    1.648855   -0.803441
H       0.105237   -2.355030   -2.202857
H       0.110568   -4.467027    0.667036
H       0.037454   -0.230864    2.221971
