14

C       0.021905    1.383513    0.066138
N      -0.024226   -0.061384   -0.021070
C      -0.112996   -0.801120   -1.177397
C      -0.023058   -2.097225   -0.735403
O      -0.038433   -3.408458   -1.110258
C       0.097163   -4.057104    0.105363
N       0.188468   -3.328763    1.166146
C       0.113974   -2.036541    0.653273
N       0.119794   -0.788673    1.114480
H       1.053743    1.742218    0.141028
H      -0.444693    1.811886   -0.822967
H      -0.528046    1.698467    0.954022
H      -0.226993   -0.333581   -2.140087
H       0.115348   -5.134577    0.043534
