16

C       0.011620    1.511849    0.008139
C       0.033842   -0.005146    0.002528
O       1.082401   -0.616957   -0.008424
C      -1.270899   -0.743238    0.010592
C      -2.517809   -0.109508    0.022564
N      -3.686024   -0.754924    0.029729
C      -3.643690   -2.089746    0.025078
C      -2.459904   -2.827748    0.013298
C      -1.256059   -2.142118    0.005926
H       1.038314    1.877888    0.001453
H      -0.520529    1.897875   -0.867872
H      -0.506916    1.891617    0.894973
H      -2.584139    0.975429    0.026596
H      -4.605822   -2.596896    0.031095
H      -2.490909   -3.911565    0.010060
H      -0.299148   -2.651622   -0.003378
