23

C       0.074611    1.539727    0.096593
C       0.011061    0.021080    0.034231
C       0.609092   -0.548161   -1.261919
C       0.922351   -2.046871   -1.177283
C       0.503890   -2.860261   -2.385676
C       2.193339   -2.452551   -0.462088
C       0.857557   -2.700151    0.189917
C       0.448482   -1.857440    1.380462
O       0.701869   -0.480070    1.174766
H       1.116680    1.874382    0.082882
H      -0.442131    1.982783   -0.760426
H      -0.391521    1.907265    1.014601
H      -1.043248   -0.301760    0.102695
H      -0.102490   -0.368191   -2.076433
H       1.518589    0.011234   -1.515504
H       0.985902   -2.487230   -3.297653
H       0.779137   -3.913922   -2.271878
H      -0.580509   -2.813278   -2.542659
H       2.747424   -3.304432   -0.842923
H       2.807623   -1.660597   -0.045019
H       0.503978   -3.727533    0.227326
H      -0.623743   -2.011844    1.595385
H       1.012631   -2.140154    2.276285
