23

C      -0.436568    1.545330    0.442757
C       0.078290    0.147292    0.090597
C       0.759134   -0.556872    1.269275
O      -0.116561   -0.671857    2.391660
C       1.336419   -1.932491    0.874266
C       2.179278   -2.510360    2.009574
O       3.313851   -2.126412    2.186054
C       1.512518   -3.531780    2.913073
C       2.407185   -4.035236    4.041372
H       0.390069    2.207447    0.721737
H      -0.957936    1.998839   -0.405262
H      -1.125830    1.504171    1.290187
H      -0.751979   -0.483037   -0.262844
H       0.789351    0.205672   -0.742130
H       1.588552    0.062938    1.630362
H      -0.925735   -1.099129    2.087181
H       0.514918   -2.605923    0.599501
H       1.989455   -1.808745    0.004859
H       0.604256   -3.048347    3.298702
H       1.155395   -4.358945    2.282889
H       3.305241   -4.515135    3.643441
H       2.736460   -3.206904    4.673680
H       1.875851   -4.758761    4.666140
