14

C      -0.033200    1.456431   -0.016172
C      -0.008209   -0.037782    0.000050
N      -0.037594   -0.661846   -1.129854
N      -0.012526   -2.029305   -1.060468
C       0.039236   -2.679977    0.119756
F       0.055656   -3.994931   -0.020235
N       0.070785   -2.146720    1.272152
C       0.049130   -0.741619    1.308196
N       0.076009   -0.051836    2.383160
H       0.853830    1.849807    0.489591
H      -0.077099    1.824907   -1.041806
H      -0.892558    1.821300    0.554477
H      -0.035833   -2.519264   -1.939780
H       0.114613   -0.682131    3.186924
