22

C      -0.002201    1.417056   -0.131741
O      -0.034667    0.029595    0.110864
C      -1.322261   -0.568957    0.019077
C      -1.767108   -0.748053   -1.434990
C      -1.230496   -1.907477    0.755749
C      -0.887377   -1.752294    2.239363
C      -0.728559   -3.116334    2.938725
C      -0.416571   -2.988233    4.360753
N      -0.173012   -2.869377    5.484177
H       1.018081    1.753511    0.068812
H      -0.252863    1.673011   -1.171240
H      -0.691052    1.961742    0.532771
H      -2.052785    0.074961    0.540633
H      -2.757595   -1.211846   -1.479241
H      -1.828323    0.210253   -1.957851
H      -1.059321   -1.386876   -1.972747
H      -2.184178   -2.437859    0.641794
H      -0.465326   -2.518032    0.258528
H       0.038750   -1.180536    2.337550
H      -1.670930   -1.179175    2.748503
H      -1.646921   -3.707784    2.839755
H       0.069220   -3.696684    2.460171
