12

N      -0.021524    1.347122    0.008089
C       0.021745    0.001249    0.000512
N      -1.143130   -0.626744    0.003641
C      -1.217247   -1.962332   -0.003165
O      -2.149466   -2.697463   -0.001787
O       0.116893   -2.701299   -0.014753
C       1.213344   -2.013437   -0.017348
F       2.288728   -2.766678   -0.027155
C       1.287673   -0.662778   -0.010276
H       0.812045    1.905966    0.006522
H      -0.922540    1.795242    0.015676
H       2.236135   -0.148409   -0.012703
