20

C      -0.126391    1.583476   -0.063307
C       0.037907    0.074311    0.030540
C       0.666402   -0.685029   -1.168456
C      -0.064775   -1.254339   -2.343648
N       2.058613   -0.183789   -1.270876
C       1.727661   -1.263420   -0.292344
C       1.167598   -0.528685    0.906012
C       1.819550   -0.058856    2.123920
O       0.897324   -1.166861    2.139459
H       0.806938    2.047078   -0.392092
H      -0.914657    1.850968   -0.775719
H      -0.404130    2.009586    0.906780
H      -0.899931   -0.412855    0.321371
H      -0.402638   -0.463096   -3.023367
H       0.577993   -1.932819   -2.915717
H      -0.947251   -1.817842   -2.022641
H       2.482916   -0.641346   -2.078772
H       2.221929   -2.227243   -0.317194
H       2.860481   -0.314629    2.316143
H       1.463274    0.843842    2.617970
