11

N      -0.143743   -1.173133   -0.002881
C      -0.070002   -0.021484    0.002641
C       0.005337    1.445223    0.009798
C       1.374070    1.945400   -0.000595
C       2.504214    2.376867   -0.009078
C       3.767309    2.858853   -0.018560
C       4.901270    3.294762   -0.027054
C       6.169803    3.784164   -0.036543
N       7.254432    4.204343   -0.044637
H      -0.541512    1.828630   -0.861818
H      -0.524717    1.819189    0.895773
