16

N       0.043041    1.200006    0.346274
C      -0.012346   -0.046717   -0.169904
O       0.956563   -0.583238   -0.707050
C      -1.325884   -0.762546   -0.039359
C      -1.647696   -1.744585   -1.189332
C      -1.188372   -2.325250    0.093313
O       0.039246   -2.911610    0.257906
C      -2.405369   -0.107339    0.632733
C      -3.308521    0.449376    1.204081
H       0.920336    1.691961    0.318517
H      -0.757794    1.614417    0.792562
H      -2.692825   -1.823321   -1.464749
H      -0.936686   -1.724349   -2.008000
H      -1.933910   -2.769650    0.744140
H       0.684728   -2.339504   -0.201110
H      -4.112600    0.927024    1.707178
