19

O       0.087594    1.388584    0.112078
C       0.025528   -0.003360    0.069287
C      -1.400594   -0.504396   -0.086563
O      -2.294901    0.316099   -0.230300
C      -1.644242   -1.983516   -0.041335
C      -2.287992   -2.419796    1.327133
C      -3.686316   -2.405875    0.659870
C      -2.989481   -2.431128   -0.727023
O      -3.504814   -1.688090   -1.785831
H      -0.821638    1.687943   -0.048070
H       0.608573   -0.413905   -0.774547
H       0.454973   -0.451354    0.980539
H      -0.736292   -2.521564   -0.327178
H      -1.953905   -3.421462    1.604988
H      -2.133206   -1.751203    2.176180
H      -4.374611   -3.219914    0.896111
H      -4.193437   -1.450690    0.816160
H      -2.878370   -3.457045   -1.090740
H      -3.537054   -0.768396   -1.487517
