15

O      -0.002075   -0.011069    0.371225
C      -0.047246    1.172040    0.126864
C      -1.354625    1.935755    0.054988
C      -1.487175    2.864826   -1.166936
N      -0.695488    4.086364   -1.082538
C       0.561365    4.006622   -1.073106
O       1.331704    2.875250   -1.125415
C       1.264571    1.947381   -0.038555
H      -2.161699    1.198956    0.069567
H      -1.443780    2.548291    0.962880
H      -1.223917    2.310536   -2.078404
H      -2.535729    3.159165   -1.258727
H       1.167350    4.913348   -1.088686
H       1.468063    2.470564    0.908692
H       2.060427    1.222309   -0.211033
