20

C      -0.030377    1.500601    0.050346
C      -0.015245   -0.009658   -0.004117
C       0.436962   -0.813470   -1.261571
C      -0.316380   -1.985045   -0.574424
C       0.470589   -2.181828    0.733438
N       1.844606   -1.612679    0.733811
C       0.683749   -0.780019    1.142564
C      -1.324529   -0.863214   -0.116073
O      -2.072245   -0.998809    1.066953
H       0.987529    1.904710    0.024775
H      -0.580781    1.925894   -0.795709
H      -0.507367    1.854914    0.971241
H      -0.070032   -0.469621   -2.165572
H       1.504026   -0.930846   -1.427592
H      -0.636835   -2.868912   -1.126478
H       0.211748   -2.968980    1.430487
H       2.313566   -1.930763    1.580249
H       0.594730   -0.436194    2.166059
H      -1.956019   -0.522940   -0.947937
H      -2.876430   -1.486173    0.864936
