14

C      -0.032042    1.551436    0.021508
C      -0.008618    0.051193    0.000480
C      -0.036366   -0.693678   -1.126014
O      -0.015379   -2.024596   -1.140759
C       0.039963   -2.770007    0.084103
O       0.055275   -3.958374   -0.023138
N       0.068949   -2.041711    1.241752
C       0.046371   -0.742447    1.197102
O       0.076265   -0.071194    2.350534
H       0.859687    1.956429    0.510714
H      -0.075230    1.950275   -0.995431
H      -0.898706    1.928037    0.574286
H      -0.078508   -0.270413   -2.125202
H       0.111856   -0.738241    3.054503
