23

C       0.021326    1.467988    0.000925
C      -0.011383   -0.041159   -0.017226
C      -0.626960   -0.801373    1.137415
C       0.855841   -0.919316    0.866346
C       1.371822   -1.935907   -0.170077
C       0.122764   -2.282053   -1.019740
C       0.179233   -0.769681   -1.383112
C      -0.548675   -0.220475   -2.590431
C       1.744103   -0.969049   -1.344643
H       0.859086    1.862252   -0.586613
H      -0.899708    1.899605   -0.409373
H       0.131264    1.844384    1.023066
H      -0.891743   -0.190897    1.996368
H      -1.300249   -1.637433    0.992655
H       1.561311   -0.497160    1.574640
H       2.053814   -2.711156    0.180385
H       0.385788   -2.899482   -1.882232
H      -0.767660   -2.697132   -0.545722
H      -1.635102   -0.274251   -2.452870
H      -0.291761    0.827985   -2.776516
H      -0.298809   -0.788216   -3.492812
H       2.363291   -0.098675   -1.107880
H       2.133038   -1.482215   -2.229628
