21

C       0.134185    1.487098    0.104072
C       0.071953   -0.015408    0.047381
C       0.649006   -0.949599   -1.058435
C      -0.035147   -1.911385   -0.037879
C      -0.124300   -3.412301   -0.091795
C       0.622973   -1.039955    1.081319
C      -1.234213   -0.912385   -0.040724
C      -2.238637   -0.891567    1.071403
O      -2.226119   -1.599086    2.051292
H       1.175682    1.827091    0.116949
H      -0.354229    1.938433   -0.766529
H      -0.353203    1.874586    1.005179
H       0.197337   -0.876385   -2.052951
H       1.740413   -1.003692   -1.116861
H       0.873530   -3.863946   -0.071044
H      -0.690099   -3.791032    0.764614
H      -0.625000   -3.747067   -1.007207
H       1.713706   -1.098470    1.149272
H       0.159230   -1.068426    2.066827
H      -1.763633   -0.797367   -0.996712
H      -3.056974   -0.145959    0.929356
