23

C      -0.014497    1.427311   -0.023233
O      -0.006861    0.021181   -0.018190
C       0.667066   -0.524469    1.096104
C       0.586903   -2.046233    1.017982
C       1.339100   -2.758251    2.171426
C       0.490965   -4.007340    2.535807
C       0.482140   -4.339920    4.031877
C      -0.864804   -3.651313    1.962368
C      -0.815464   -2.599435    1.148346
H       1.005793    1.842547   -0.054814
H      -0.553471    1.750306   -0.917495
H      -0.521424    1.838219    0.864668
H       1.721602   -0.196341    1.105486
H       0.207019   -0.170716    2.035673
H       1.005210   -2.334265    0.042226
H       2.372799   -3.006513    1.915946
H       1.374004   -2.090961    3.042748
H       0.881864   -4.887000    2.000622
H       0.085079   -3.501481    4.614966
H      -0.139001   -5.217610    4.240867
H       1.493186   -4.554343    4.394644
H      -1.754757   -4.232022    2.184800
H      -1.647989   -2.177801    0.597528
