16

O      -0.663048    0.881328    0.722248
C       0.137370    1.000786   -0.170692
C       1.364852    1.845503   -0.068926
C       1.779300    2.795704    1.085217
C       2.914725    2.910920    0.025827
C       2.857203    1.362922   -0.115844
C       1.786945    3.000159   -1.059690
C       2.101394    2.671719   -2.439889
N       2.342451    2.419210   -3.542477
H       0.011402    0.472988   -1.142196
H       1.152573    3.675723    1.244213
H       2.044910    2.312686    2.026128
H       3.801967    3.541011    0.064508
H       3.186891    0.784186    0.748715
H       3.210815    0.933028   -1.054208
H       1.157690    3.892532   -1.014389
