21

C       1.020489   -0.991853   -0.568494
C      -0.035570    0.022063   -0.850369
N       0.666482    0.008233    0.429944
C      -0.047127   -0.407494    1.634490
C      -0.830565    0.776087    2.251315
C      -1.882472    0.138980    3.184693
C      -2.168361   -1.208757    2.544422
N      -2.416403   -1.122291    1.090008
C      -1.080721   -1.537012    1.590184
H       0.692070   -2.018871   -0.421743
H       2.013119   -0.895122   -1.000886
H       0.186168    0.873788   -1.488435
H      -1.065840   -0.318254   -0.875624
H       0.728831   -0.736171    2.340696
H      -0.169310    1.477469    2.763889
H      -1.327687    1.317039    1.442757
H      -1.471501   -0.026486    4.187911
H      -2.778831    0.757701    3.293274
H      -2.678196   -1.983504    3.108792
H      -2.924262   -1.951535    0.791726
H      -0.762701   -2.563315    1.436522
