20

C      -0.405684    1.306838   -0.539888
N       0.048572   -0.040874   -0.243177
C       1.327957   -0.508560   -0.864265
C       1.854237   -0.863703    0.524822
O       2.530543   -2.039622    0.779967
C       1.879955    0.365979    1.400859
C       0.559498   -0.332798    1.098315
C      -0.304118   -0.969360    2.148490
O       0.572998   -1.740683    2.977986
H       0.339649    2.094487   -0.331420
H      -0.677612    1.371626   -1.598465
H      -1.303076    1.527223    0.047885
H       1.171977   -1.376482   -1.511927
H       1.891303    0.260181   -1.409410
H       2.185362   -2.376019    1.617642
H       2.255524    0.179149    2.401818
H       2.104906    1.353299    1.003551
H      -0.845236   -0.224473    2.752941
H      -1.047050   -1.607353    1.648728
H       0.054892   -2.150146    3.676349
