16

C      -0.120729    1.612157    0.012582
C       0.010824    0.087603    0.003436
C      -1.357677   -0.603772    0.011406
C      -1.278012   -2.087937    0.002900
N      -0.215116   -2.805270   -0.008823
O      -0.690959   -4.144243   -0.012270
C      -2.047171   -4.135058   -0.002300
O      -2.775960   -5.069359   -0.001556
O      -2.431307   -2.805174    0.007725
H       0.864257    2.086849    0.006767
H      -0.668857    1.971064   -0.865389
H      -0.653918    1.961739    0.903422
H       0.572681   -0.238173   -0.878100
H       0.587514   -0.247367    0.871853
H      -1.941185   -0.305595    0.892660
H      -1.956108   -0.296385   -0.856566
