19

C      -0.027378    1.491925    0.263722
C      -0.027261    0.021492   -0.075014
O       1.005141   -0.570398   -0.357943
C      -1.337176   -0.713960   -0.058302
C      -1.553178   -1.588956   -1.362747
O      -0.827751   -1.262968   -2.512240
C      -1.163656   -2.866131   -0.578734
C      -1.253009   -2.075563    0.749651
O      -0.230598   -2.230997    1.690057
H       0.984698    1.895025    0.212843
H      -0.681321    2.032692   -0.430234
H      -0.440126    1.641474    1.268171
H      -2.165349   -0.055809    0.210989
H      -2.606585   -1.570980   -1.651335
H       0.107304   -1.269328   -2.268650
H      -1.796327   -3.749250   -0.692265
H      -0.126440   -3.143808   -0.790086
H      -2.189265   -2.247503    1.285501
H       0.604377   -2.075101    1.229385
