19

C      -0.047889    1.505142   -0.137223
C      -0.007658    0.019326    0.036377
N       0.021025   -0.784779   -1.025269
N       0.053061   -2.029888   -0.505223
C       0.037758   -2.054200    0.853446
C       0.103771   -3.326065    1.636759
C       1.538704   -3.732313    1.989691
O       1.467625   -4.949393    2.712299
C       0.001322   -0.728262    1.239402
H       0.824270    1.986592    0.319044
H      -0.060818    1.754349   -1.200389
H      -0.938458    1.939523    0.330231
H       0.058240   -2.818844   -1.129568
H      -0.463302   -3.219668    2.566429
H      -0.359823   -4.148041    1.078710
H       2.128344   -3.843301    1.065728
H       2.007832   -2.932210    2.582036
H       2.359780   -5.204321    2.964578
H      -0.022729   -0.354170    2.251098
