15

N       0.108816    1.326103    0.054987
C      -0.349764    0.089559   -0.364035
O      -0.710051   -0.121652   -1.513208
N      -0.319193   -0.879943    0.612496
C      -0.688352   -2.213836    0.425036
C      -0.711840   -3.276666    1.294386
N      -1.158333   -4.403051    0.638197
C      -1.398860   -4.022951   -0.593324
N      -1.128196   -2.695188   -0.779578
H      -0.093919    2.059400   -0.607034
H      -0.022641    1.590238    1.019472
H       0.112287   -0.667861    1.496990
H      -0.436647   -3.293751    2.337943
H      -1.767211   -4.647540   -1.392525
H      -1.199008   -2.108847   -1.599591
