14

O       0.205048    1.356488    0.014809
C       0.062822    0.012294    0.008435
C      -1.117547   -0.658582   -0.021804
O      -2.301186    0.003532   -0.049399
C      -1.182901   -2.106623   -0.026440
O      -2.302704   -2.642496   -0.054931
C       0.103558   -2.770777    0.003812
C       1.255735   -2.050621    0.033490
N       1.241242   -0.684111    0.035858
H      -0.683202    1.736632   -0.007620
H      -2.947870   -0.734037   -0.066939
H       0.135896   -3.852543    0.002368
H       2.239162   -2.501851    0.056750
H       2.097220   -0.153416    0.057739
