14

O      -0.244603    0.152049   -0.483908
C      -0.015588    1.219255    0.018895
C       1.302375    1.954179   -0.089614
O       2.406612    1.165006   -0.583131
C       2.620700    2.090381   -1.651788
C       1.428630    2.142150   -2.563450
C       1.406829    2.931532   -1.276670
C       3.955510    2.458904   -1.997353
N       5.030986    2.768138   -2.290116
H      -0.791164    1.786140    0.583778
H       1.559295    2.425291    0.867380
H       1.547184    2.745555   -3.456782
H       0.839368    1.236875   -2.668807
H       1.304558    4.005856   -1.228462
