16

N      -0.353864   -1.122158   -0.174723
C      -0.225419    0.025210   -0.093386
C      -0.065325    1.443447   -0.011699
C       0.507705    2.074889    1.271701
O       0.885247    1.224308    2.300421
C       2.298409    1.015620    2.344579
C       2.786870    0.453816    1.022279
O       2.506314    1.351420   -0.061098
C       1.337036    2.082705    0.028083
H      -0.827444    2.014252   -0.532326
H       0.032802    2.993089    1.611688
H       2.815132    1.957207    2.579696
H       2.475480    0.302641    3.152923
H       3.872947    0.326951    1.028828
H       2.314913   -0.516920    0.833499
H       1.427595    3.009348   -0.529263
