19

C       0.020508    1.534269    0.028959
C       0.029035    0.017450    0.027912
C      -1.206213   -0.599562   -0.608839
C       1.319072   -0.801250   -0.266980
C       2.476458   -0.141853    0.417819
O       3.591254    0.186958    0.170665
O       1.821439   -0.031663    1.640950
C       0.679426   -0.781197    1.111801
C       0.131881   -1.834215    2.016958
H       0.876447    1.950742    0.561173
H       0.026508    1.918576   -0.996278
H      -0.889356    1.902041    0.516550
H      -1.322357   -0.237362   -1.635607
H      -1.156858   -1.691317   -0.646258
H      -2.106998   -0.318227   -0.052700
H       1.364373   -1.556751   -1.038689
H      -0.277337   -1.375751    2.923752
H      -0.669047   -2.394042    1.529371
H       0.918135   -2.533577    2.315489
