22

C      -0.102312    1.501133    0.078675
C      -0.189556    0.011898    0.365033
O      -1.145550   -0.557855   -0.515196
C      -1.312658   -1.928133   -0.339974
C      -2.220979   -2.433997    0.760999
C      -2.642719   -2.527634   -0.698269
C      -3.744254   -1.603060   -1.178858
C      -2.638245   -3.899183   -1.345905
H       0.631531    1.974084    0.738164
H       0.198102    1.676146   -0.958304
H      -1.072515    1.980343    0.238549
H       0.791222   -0.469281    0.216415
H      -0.483326   -0.170626    1.410437
H      -0.417765   -2.513819   -0.562416
H      -1.950892   -3.341312    1.291957
H      -2.711505   -1.680720    1.368953
H      -3.654250   -0.612412   -0.729847
H      -3.701265   -1.478585   -2.267186
H      -4.729718   -2.012755   -0.928995
H      -3.570425   -4.435237   -1.131514
H      -2.542123   -3.820897   -2.435295
H      -1.810911   -4.516042   -0.980603
