18

N      -0.000441   -1.174055   -0.213120
C      -0.000958   -0.020190   -0.157006
C      -0.009770    1.438187   -0.063164
C       1.400497    2.041580    0.004257
O       2.066166    1.741270   -1.216460
C       3.088596    2.715219   -1.425072
C       2.559884    3.994933   -0.800468
C       1.130798    4.339037   -1.126123
C       1.449980    3.556601    0.125495
H      -0.539178    1.850592   -0.927574
H      -0.568503    1.726137    0.834130
H       1.935768    1.593852    0.857765
H       4.027909    2.412274   -0.936905
H       3.261388    2.773376   -2.504250
H       3.259476    4.773969   -0.523267
H       0.821999    5.369863   -0.996802
H       0.658164    3.824585   -1.957112
H       1.304273    4.006445    1.100250
