19

O       0.367646    0.744425   -0.874321
C      -0.106232    0.465182    0.440272
C      -1.444498   -0.262877    0.403244
C      -1.549496   -1.686663   -0.143664
C      -1.282998   -2.775441    0.936402
C      -0.577282   -2.395040    2.193838
C      -1.126332   -1.281533    2.691629
C      -2.173035   -0.773253    1.725719
C      -2.589272   -2.033849    0.894066
H       0.558351   -0.100301   -1.294539
H       0.634907   -0.104500    1.014794
H      -0.221583    1.441279    0.926205
H      -2.159993    0.355840   -0.147919
H      -1.529217   -1.966980   -1.190869
H      -1.231694   -3.786389    0.548238
H       0.270056   -2.936461    2.596189
H      -0.784322   -0.725859    3.556172
H      -2.938508   -0.112676    2.129853
H      -3.573865   -2.473241    0.790438
