19

C      -0.290827    1.357672   -0.250648
O      -0.292278   -0.067694   -0.384623
C       0.816359   -0.590956   -0.955424
O       1.749485    0.079577   -1.333304
C       0.722560   -2.058699   -1.066343
C       1.985669   -2.882437   -1.180404
C       1.049466   -2.887657   -2.337053
C      -0.159530   -3.789861   -2.061889
C      -0.487030   -2.954938   -0.779368
H       0.553249    1.687880    0.360238
H      -0.220814    1.838414   -1.229886
H      -1.234521    1.611859    0.232559
H       2.883811   -2.288957   -1.307529
H       2.091383   -3.763198   -0.550819
H       1.340819   -2.489384   -3.301062
H      -0.940155   -3.706382   -2.820330
H       0.071454   -4.849615   -1.914166
H      -0.465268   -3.487005    0.176759
H      -1.432973   -2.419061   -0.860483
