22

C      -0.283380    1.502783    0.287237
C      -0.077446    0.006377    0.043893
N       0.723356   -0.186302   -1.174026
C       0.457819   -1.376212   -1.975690
C       0.051539   -0.026935   -2.456754
C       0.699452   -0.642560    1.180336
O       2.003408   -0.143651    1.296213
C       0.035301   -0.986167    2.472419
C       0.474675   -2.095454    1.531353
H       0.680924    1.992891    0.440173
H      -0.786866    1.974916   -0.561476
H      -0.894709    1.660219    1.180157
H      -1.060642   -0.489295   -0.045950
H       1.328315   -1.873974   -2.392866
H      -0.334336   -2.045730   -1.646546
H      -1.013085    0.201130   -2.447102
H       0.617410    0.480927   -3.232565
H       2.343026   -0.120290    0.390060
H       0.621209   -0.830951    3.371071
H      -1.026850   -0.793098    2.583563
H      -0.291482   -2.659383    1.009647
H       1.352524   -2.664774    1.813966
