18

O      -0.384747    1.682474    0.020975
C       0.024527    0.334055    0.119553
C      -1.173043   -0.614030    0.216274
N      -2.047509   -0.346697   -0.936248
C      -2.508765   -1.236730   -1.958389
C      -3.118800   -2.589471   -1.406257
O      -2.996187   -2.615305    0.020367
C      -4.052701   -1.852331   -0.564718
C      -3.468851   -0.477817   -1.077855
H      -1.065369    1.679367   -0.665189
H       0.650224    0.041801   -0.741227
H       0.642050    0.244277    1.020123
H      -0.839127   -1.653476    0.248916
H      -1.734436   -0.408971    1.132527
H      -2.240164   -1.081224   -2.997615
H      -3.211446   -3.532269   -1.930545
H      -5.070734   -2.063406   -0.261694
H      -4.079893    0.390849   -1.297728
