23

C      -0.158312    1.376636    0.019325
O       0.062686   -0.012941   -0.033742
C       0.685130   -0.566842    1.120381
C      -0.268979   -0.645537    2.314941
C       1.269293   -1.931200    0.682504
C       2.369900   -1.723239   -0.368696
O       1.823465   -2.518937    1.857435
C       0.178852   -2.866943    0.135507
O       0.798799   -4.145417   -0.028468
H       0.771668    1.926189    0.233651
H      -0.527998    1.681527   -0.963206
H      -0.906111    1.658262    0.774432
H       1.545745    0.061487    1.405122
H      -1.211763   -1.125183    2.035727
H       0.196395   -1.219573    3.117639
H      -0.501395    0.353225    2.695246
H       3.210888   -1.190953    0.084582
H       2.727544   -2.688003   -0.737094
H       1.993627   -1.140189   -1.212567
H       1.922165   -3.456910    1.649138
H      -0.648521   -2.936184    0.852421
H      -0.210734   -2.483714   -0.814747
H       0.111225   -4.803003   -0.160672
