17

N       0.235602   -1.193285    0.358444
C       0.077003   -0.057232    0.218525
C      -0.175461    1.366716    0.055859
C      -1.560351    1.736388   -0.451050
C      -1.842329    1.192518   -1.836528
C      -2.589702    2.019492   -2.816211
N      -1.153759    1.759928   -3.004051
C       0.622043    2.303933    0.872809
O       0.913573    2.106852   -0.508726
H      -2.309848    1.365619    0.259063
H      -1.624297    2.830224   -0.456332
H      -1.950259    0.110632   -1.884161
H      -3.240739    1.545326   -3.544787
H      -2.910100    3.010628   -2.502967
H      -0.601642    2.566304   -2.721731
H       0.182759    3.265845    1.131965
H       1.363088    1.915129    1.567434
