17

O       0.060079    1.314103   -0.372457
C       0.025844    0.008680    0.156646
C      -1.405235   -0.550585    0.108334
N      -2.006396   -0.405528   -1.250226
C      -2.526217   -1.797701   -1.226643
C      -1.608705   -2.123301   -0.022376
O      -0.464948   -2.881099   -0.287683
C      -2.241319    0.013009    1.169217
N      -2.931952    0.438197    1.994181
H      -0.270509    1.242242   -1.277064
H       0.683330   -0.676163   -0.395290
H       0.386372    0.063018    1.187070
H      -2.714392    0.316868   -1.323571
H      -3.591611   -1.883566   -0.984988
H      -2.324258   -2.365786   -2.141351
H      -2.090024   -2.580441    0.841388
H      -0.123655   -2.641458   -1.156341
