16

C      -0.028506    1.401675    0.010430
C       1.282109    1.842717    0.000027
N       2.098286    0.740945   -0.013983
C       3.470151    0.667279   -0.027764
C       4.089858   -0.542546   -0.040456
C       3.321588   -1.743282   -0.039564
C       1.955562   -1.676036   -0.025876
C       1.297428   -0.424880   -0.012581
C      -0.029273   -0.007190    0.002629
H      -0.896413    2.044113    0.022456
H       1.700697    2.836112    0.001390
H       3.992955    1.615305   -0.027654
H       5.172039   -0.578103   -0.051205
H       3.826019   -2.702259   -0.049761
H       1.346280   -2.572891   -0.024870
H      -0.888074   -0.659918    0.007403
