20

C      -0.084110    1.534497    0.062332
C       0.067931    0.015563    0.039405
C       0.999065   -0.560168   -1.079241
C       1.981800   -1.366386   -0.203714
C       2.303837   -0.356930    0.933918
C       0.793534   -0.587033    1.262030
O       0.197545   -0.232583    2.469650
C       1.022553   -2.061238    0.804738
H       0.885130    2.041625    0.116021
H      -0.589033    1.886743   -0.843519
H      -0.675349    1.850282    0.926828
H      -0.931699   -0.429695   -0.023061
H       0.462359   -1.189830   -1.794873
H       1.503156    0.232558   -1.641847
H       2.771720   -1.921277   -0.707765
H       2.959490   -0.784201    1.698355
H       2.642562    0.647071    0.665925
H       0.703222   -0.626848    3.187224
H       0.167024   -2.620437    0.413933
H       1.556881   -2.654376    1.552724
