17

C      -0.076290    1.534781    0.070088
C       0.162628    0.064831   -0.028086
O      -0.785926   -0.830607    0.588277
C       0.596855   -0.956146    0.941095
C       1.261597   -1.826616   -0.140755
C       0.798843   -3.189261   -0.282973
C       0.388991   -4.311127   -0.422558
C       0.737185   -0.747744   -1.207911
O      -0.162291   -1.160412   -2.183869
H       0.834349    2.091615   -0.172905
H      -0.856968    1.843287   -0.633543
H      -0.396647    1.806215    1.079345
H       0.853621   -0.875139    1.991003
H       2.353449   -1.783638   -0.073856
H       0.035658   -5.305901   -0.537210
H       1.571065   -0.256351   -1.714634
H      -0.896561   -1.582524   -1.718118
