21

O       0.108366    1.388770   -0.061824
C       0.028785   -0.003218    0.148353
C      -1.415062   -0.496515    0.011297
O      -1.945786   -0.016458   -1.236071
C      -1.523192   -1.998227    0.139711
C      -1.894614   -2.751467    1.394068
C      -2.968169   -2.017705    2.209992
C      -3.900248   -2.012516    0.953752
C      -2.817960   -2.767822    0.170608
H      -0.478087    1.560581   -0.810766
H       0.665345   -0.556645   -0.567586
H       0.408829   -0.213437    1.154213
H      -2.017411    0.011837    0.769369
H      -1.646815   -0.615120   -1.929991
H      -0.753587   -2.523787   -0.427909
H      -1.254214   -3.537242    1.777409
H      -3.371192   -2.642828    3.009610
H      -2.690667   -1.050723    2.641310
H      -4.801969   -2.607596    1.110473
H      -4.191204   -1.040327    0.546360
H      -3.003051   -3.573408   -0.530291
