16

C      -0.073698    1.435435    0.222685
N      -0.017477   -0.004879   -0.002116
C      -1.322853   -0.637871    0.054329
C      -1.187466   -2.164060   -0.090225
C      -2.493814   -2.912324    0.225156
O      -3.419894   -2.402034    0.790789
C      -0.691157   -2.560611   -1.408268
N      -0.318180   -2.864246   -2.459515
H       0.928788    1.858170    0.115255
H      -0.751435    1.973539   -0.462635
H      -0.411772    1.632097    1.246147
H       0.409305   -0.187005   -0.905665
H      -1.772370   -0.443678    1.032751
H      -2.039907   -0.268221   -0.699770
H      -0.449545   -2.511819    0.649591
H      -2.505303   -3.976253   -0.089493
