17

C       0.073197    1.558459    0.172395
C       0.063520    0.029041    0.077297
O       0.661945   -0.585071    1.218449
C      -1.383510   -0.517945    0.076437
O      -2.349963    0.117785   -0.238183
C       0.687199   -0.444448   -1.162880
C       1.215481   -0.845704   -2.170319
C       1.820748   -1.368067   -3.396568
O       2.012993   -2.773143   -3.379647
H       1.096419    1.935710    0.100956
H      -0.526158    1.991626   -0.630766
H      -0.353699    1.858866    1.132266
H       1.615110   -0.599266    1.081922
H      -1.430997   -1.579367    0.398444
H       1.211935   -1.050188   -4.257923
H       2.816002   -0.932140   -3.537236
H       1.160606   -3.182486   -3.196925
