16

C      -0.168715    1.343104   -0.247158
C       1.213687    1.039068    0.243603
C       0.220777   -0.098423    0.046916
C      -0.334368   -0.774922    1.180518
C      -0.807153   -1.343185    2.134086
C      -1.348108   -2.051905    3.259547
C      -1.887748   -1.350117    4.441496
O      -2.765170   -1.955274    3.502650
H      -0.863182    1.812926    0.438639
H      -0.303963    1.613745   -1.288074
H       2.039488    1.098456   -0.456204
H       1.463025    1.302021    1.264478
H       0.391160   -0.726406   -0.822768
H      -0.952400   -3.055504    3.413799
H      -1.829626   -1.831488    5.417314
H      -1.886698   -0.261641    4.451671
