14

C      -0.089394    1.538103    0.032760
C       0.145595    0.060205    0.012214
O      -0.704395   -0.788779    0.806507
C       0.705155   -0.786551    1.078809
C       1.397295   -1.963649    0.416358
O       2.052602   -2.833159    0.925289
N       1.136073   -1.823332   -0.948396
C       0.479560   -0.645319   -1.300148
O       0.245544   -0.268675   -2.418010
H       0.807635    2.074901   -0.289519
H      -0.899109    1.795811   -0.655386
H      -0.359637    1.863654    1.039385
H       1.023920   -0.440889    2.055639
H       1.419336   -2.513265   -1.629760
