18

C      -0.252789    0.017262    1.026903
C       0.589595   -0.938286    0.182234
N       0.706364   -0.521321   -1.226913
C       1.839298    0.182252   -1.589590
O       2.106527    0.646524   -2.673485
C      -0.357061   -0.848162   -2.099260
C      -0.241862   -0.454454   -3.551577
N      -1.348186   -1.468443   -1.586150
H       0.171982    1.026283    1.025204
H      -1.274210    0.062708    0.645082
H      -0.287102   -0.335191    2.062611
H       1.605103   -1.007317    0.582653
H       0.151617   -1.936465    0.192800
H       2.523187    0.281735   -0.725724
H      -0.162888    0.628104   -3.667194
H       0.654892   -0.872838   -4.012568
H      -1.127530   -0.815373   -4.079917
H      -2.044252   -1.664997   -2.302461
