25

C      -0.216484    1.570526   -0.047855
C       0.051327    0.061783   -0.002047
C       0.865724   -0.468696   -1.162855
C       1.675046   -1.455597   -0.790414
C       1.545338   -1.784561    0.687540
C       0.612849   -3.005877    0.862076
C       2.902536   -2.114312    1.329030
C       0.838768   -0.486795    1.237349
C       1.813704    0.543577    1.820732
H       0.708881    2.152291   -0.087019
H      -0.801263    1.821340   -0.939557
H      -0.789653    1.903096    0.824154
H      -0.933700   -0.430487   -0.025409
H       0.746527   -0.096221   -2.175552
H       2.324997   -2.024627   -1.448364
H       1.015459   -3.884692    0.346349
H       0.502611   -3.263087    1.922032
H      -0.383116   -2.809186    0.453936
H       3.633560   -1.314743    1.185163
H       2.804899   -2.297014    2.405103
H       3.316286   -3.024698    0.880525
H       0.135322   -0.764440    2.031378
H       2.548257    0.875614    1.079396
H       1.278993    1.428087    2.178253
H       2.361175    0.130586    2.672088
