15

C       0.042382    1.331089    0.007022
O       0.004152   -0.084529    0.002542
C      -1.224911   -0.635317    0.010202
C      -2.464770   -0.036921    0.022153
N      -3.402783   -1.055591    0.025812
C      -2.795198   -2.265934    0.016488
C      -1.424887   -2.055549    0.006733
C      -0.422243   -3.051828   -0.004681
N       0.397313   -3.870887   -0.014107
H       1.095376    1.614415   -0.000331
H      -0.453900    1.743149   -0.881925
H      -0.439775    1.737112    0.906460
H      -2.760504    0.996760    0.028246
H      -4.397289   -0.913667    0.034132
H      -3.351132   -3.188457    0.017390
