14

O       0.131066    1.215073    0.104229
C      -0.023331   -0.155917   -0.076848
C      -1.491021   -0.591016    0.027268
O      -1.502866   -1.106979   -1.328470
C      -0.138311   -0.693725   -1.550749
C      -0.000300    0.318557   -2.595429
N       0.145628    1.116286   -3.418143
C      -1.833039   -1.680270    1.024038
O      -1.271276   -1.815823    2.078795
H       1.066174    1.442382    0.067505
H       0.655706   -0.749052    0.543786
H      -2.176168    0.259552    0.147468
H       0.502297   -1.550403   -1.789503
H      -2.648108   -2.357643    0.688738
