21

C       0.288563    1.452393    0.109364
C       0.070053   -0.057815    0.070194
C      -1.397650   -0.439578    0.126752
O      -2.277834    0.392597    0.195748
C      -1.715641   -1.925382    0.092608
N      -3.025611   -2.317864    0.142194
C      -4.241133   -1.518393    0.226621
N      -0.703352   -2.717206    0.017915
C      -0.950838   -4.142136   -0.017666
H       1.356578    1.683576    0.066134
H      -0.205234    1.945787   -0.732183
H      -0.121623    1.888159    1.024425
H       0.500251   -0.511900   -0.829253
H       0.581208   -0.568218    0.893920
H      -3.165430   -3.312567    0.115815
H      -5.085512   -2.212795    0.244054
H      -4.271578   -0.907146    1.131464
H      -4.355676   -0.849060   -0.629046
H      -0.001015   -4.678539   -0.080894
H      -1.475474   -4.501817    0.884331
H      -1.560151   -4.442860   -0.887439
