20

C       0.378648    1.531094    0.118842
C      -0.336881    0.209639   -0.188756
C       0.273728   -0.494708   -1.376541
O       1.548431   -1.126082   -1.184065
C       0.424923   -1.952980   -1.517297
C      -0.018545   -2.963893   -0.515605
C      -1.060716   -3.982613   -0.918108
C       0.367084   -4.411590   -0.713485
H       1.434716    1.351657    0.341135
H       0.327790    2.217263   -0.733698
H      -0.071928    2.033343    0.979939
H      -0.302314   -0.441012    0.689930
H      -1.396827    0.397625   -0.404703
H       0.216745    0.080190   -2.305746
H       0.459945   -2.343448   -2.538849
H      -0.050169   -2.613386    0.509602
H      -1.801742   -4.269604   -0.180798
H      -1.439702   -3.944731   -1.934317
H       0.954077   -4.659286   -1.591778
H       0.612263   -4.997015    0.165266
