22

C       0.278024    1.445327    0.198805
C      -0.118773    0.003726   -0.145042
C       0.559920   -0.500922   -1.382786
C       0.316497   -0.089826   -2.840623
C       1.238490   -1.278946   -3.215546
C       0.945169   -1.875560   -1.785963
N       1.994068   -0.961472   -1.240581
C       2.590148   -0.840205   -2.618580
C       3.745831   -1.808753   -2.788321
H       1.358234    1.515225    0.356834
H       0.009489    2.135815   -0.607942
H      -0.224499    1.785442    1.109208
H       0.140356   -0.658965    0.688223
H      -1.206154   -0.065162   -0.279506
H      -0.726596   -0.269854   -3.116048
H       0.620559    0.908509   -3.176615
H       1.157000   -1.778560   -4.179991
H       0.718127   -2.856785   -1.389139
H       2.910518    0.181843   -2.862955
H       3.436741   -2.834761   -2.563072
H       4.122941   -1.781667   -3.816140
H       4.567095   -1.548487   -2.113664
