21

C       0.198398    0.834019   -0.658598
C      -0.325321   -0.449434   -0.008604
C      -1.816325   -0.367882    0.309405
O      -2.282262   -1.528104    0.996135
C      -2.687432   -2.563611    0.226986
N      -2.975738   -3.666211    0.755175
C      -3.453078   -4.775250   -0.053001
C      -3.583499   -4.588903   -1.568916
H       1.267515    0.756644   -0.874889
H      -0.316529    1.044972   -1.602513
H       0.054285    1.699512   -0.002544
H      -0.147871   -1.306810   -0.669671
H       0.215328   -0.656284    0.921707
H      -2.020928    0.472670    0.979766
H      -2.401241   -0.209419   -0.608484
H      -2.745581   -2.319721   -0.842533
H      -2.787952   -5.625857    0.148060
H      -4.427472   -5.073550    0.357015
H      -2.621326   -4.351879   -2.035874
H      -3.951159   -5.515045   -2.021036
H      -4.290936   -3.792423   -1.823795
