14

O       0.143111    1.317842    0.352462
C      -0.022743   -0.038090    0.027616
C      -1.489333   -0.438494   -0.171615
C      -1.469522   -1.397568   -1.351038
N      -2.422064   -2.165217   -1.675625
N      -0.224355   -1.229266   -1.978411
C       0.629580   -0.370902   -1.319745
O       1.687965    0.055654   -1.716405
H       1.018736    1.568938    0.027464
H       0.452057   -0.689821    0.781030
H      -1.963432   -0.894512    0.696864
H      -2.061890    0.453740   -0.446027
H      -2.207525   -2.716924   -2.508191
H       0.013521   -1.641191   -2.869648
