15

N       0.542268   -0.132322    0.737259
C      -0.175134    0.293306   -0.326889
O       0.168472    1.166801   -1.099840
C      -1.546713   -0.388326   -0.491400
C      -1.786978   -0.845728   -1.943779
N      -1.444019   -2.249066   -1.812992
C      -1.523511   -2.689591   -0.517496
O      -1.478447   -3.808648   -0.093920
O      -1.653910   -1.580492    0.298164
H       1.451737    0.265910    0.901945
H       0.215839   -0.901017    1.298585
H      -2.307677    0.317657   -0.150122
H      -2.829999   -0.696919   -2.250444
H      -1.130316   -0.304336   -2.627065
H      -1.575183   -2.919635   -2.551509
