16

O       0.121799    1.430408    0.114766
C       0.058810    0.014544    0.181068
C      -1.359337   -0.526980   -0.063248
C      -1.415433   -2.020255   -0.006847
C      -1.993636   -2.826441    0.940749
N      -1.734148   -4.119038    0.537512
C      -1.019912   -4.042083   -0.619421
N      -0.808704   -2.797384   -0.976015
H      -0.066780    1.687800   -0.793281
H       0.754179   -0.459909   -0.525677
H       0.386205   -0.252887    1.191290
H      -2.039366   -0.090463    0.675520
H      -1.695321   -0.189139   -1.052943
H      -2.552410   -2.609447    1.835942
H      -2.029026   -4.959098    1.005656
H      -0.688328   -4.921204   -1.151836
