19

C      -1.480869   -0.095047   -0.166249
C       0.022998   -0.054601    0.095958
O       0.372959   -0.731487    1.295369
C       0.826047   -0.601174   -1.086712
C       2.198887   -1.184792   -0.899718
C       1.029185   -2.072186   -1.272427
O       0.559644    0.117108   -2.285820
C       1.269803    1.248437   -2.499051
O       1.075126    1.956539   -3.440381
H      -1.735747    0.457128   -1.073588
H      -1.817483   -1.130326   -0.302918
H      -2.021991    0.341258    0.677683
H       0.331339    0.988673    0.251158
H      -0.219635   -1.483360    1.396242
H       2.941678   -0.991531   -1.665112
H       2.573746   -1.240480    0.114764
H       0.638312   -2.742676   -0.515693
H       0.980429   -2.446668   -2.287985
H       2.037161    1.424910   -1.723732
