16

C      -0.065956    1.477112    0.025920
C      -0.016315    0.024854   -0.008093
C       0.035538   -1.180667   -0.037248
C       0.090159   -2.585705   -0.070827
C       1.136414   -3.487697   -0.178227
N       0.637251   -4.746043   -0.161926
N      -0.662148   -4.686788   -0.050473
N      -1.011719   -3.389644    0.005997
C      -2.402664   -3.006489    0.132155
H       0.571014    1.876277    0.822958
H       0.275132    1.908405   -0.921794
H      -1.086481    1.831868    0.205657
H       2.191582   -3.286436   -0.263624
H      -2.560801   -2.437301    1.051836
H      -2.710124   -2.396307   -0.721012
H      -2.987212   -3.925474    0.160216
