20

O      -0.143919    1.282607    0.209788
C       0.041341   -0.117995    0.022717
C       0.823452   -0.362987   -1.291885
C       2.124245    0.302407   -1.268623
N       3.136112    0.857534   -1.199442
C       0.688784   -0.750820    1.270415
C      -0.471579   -0.788392    2.274300
C      -1.672009   -1.247286    1.418371
C      -1.376797   -0.734952   -0.019223
H       0.721417    1.684947    0.354967
H       0.969819   -1.434902   -1.461114
H       0.244539    0.032952   -2.133049
H       1.023804   -1.769838    1.037031
H       1.563023   -0.189189    1.613966
H      -0.280320   -1.443699    3.127712
H      -0.646491    0.220651    2.658942
H      -1.736826   -2.340294    1.419766
H      -2.623578   -0.874032    1.804116
H      -2.077943    0.035676   -0.346822
H      -1.423103   -1.550840   -0.746554
