17

C       0.102067    1.430568   -0.322296
O       1.492498    1.423323    0.074459
C       1.379059    0.126765    0.679068
C      -0.049020   -0.059444    0.036158
C       0.652101   -0.938703   -0.995936
C       0.952356   -1.011769   -2.286738
C       2.438489   -1.332832   -2.386410
O       2.974207   -1.131425   -1.061719
C       1.885308   -1.101515   -0.175369
H      -0.487511    2.096992    0.321758
H      -0.034474    1.711856   -1.371140
H       1.601186    0.134996    1.749924
H      -0.932913   -0.412599    0.562998
H       0.349164   -0.759079   -3.149656
H       2.648189   -2.362078   -2.718980
H       2.946868   -0.650367   -3.079722
H       1.891414   -1.973225    0.502309
