19

C       0.195368    1.277086    0.226435
O      -0.218895    0.005468   -0.229847
C       0.573062   -0.541943   -1.250709
C       0.406771    0.117395   -2.603307
C       1.914815   -1.112908   -0.844617
C       0.750507   -2.034474   -1.167857
C       0.093288   -2.850419   -0.077756
H       1.245839    1.270477    0.550610
H       0.074446    2.056370   -0.539077
H      -0.439129    1.529211    1.079811
H       0.755620    1.155883   -2.598050
H       0.981613   -0.416992   -3.364896
H      -0.646875    0.113964   -2.902065
H       2.749802   -1.046132   -1.534317
H       2.185894   -1.025556    0.202683
H       0.808022   -2.535180   -2.131679
H      -0.003592   -2.266452    0.839802
H      -0.912285   -3.168300   -0.374352
H       0.677815   -3.750382    0.142538
