17

O      -0.180915    1.430645   -0.086174
C      -0.084407    0.037610   -0.012203
C      -0.515368   -0.678370    1.248364
C      -1.371541   -0.722198    0.009708
C      -2.744705   -0.083453   -0.228091
C      -2.952648   -1.090793   -1.399418
C      -1.724587   -1.907887   -0.896472
H       0.491258    1.807418    0.490832
H       0.742654   -0.394608   -0.578624
H       0.023181   -1.572503    1.548762
H      -0.865287   -0.058182    2.068753
H      -3.440108   -0.249243    0.600759
H      -2.738454    0.979337   -0.477435
H      -3.909371   -1.616276   -1.432648
H      -2.774324   -0.632626   -2.375258
H      -0.979686   -2.200610   -1.642460
H      -2.016202   -2.798369   -0.329900
