14

C      -0.050422   -1.252206   -0.097213
C      -0.032365   -0.053919   -0.015190
C       0.019709    1.401868    0.069408
N      -0.560688    1.906543    1.345984
C       0.307143    2.676203    1.864947
N       1.537812    2.920895    1.182639
C       2.361897    1.676730    1.139221
C       1.439438    1.998487    0.029420
H      -0.077777   -2.311595   -0.166449
H      -0.573408    1.822088   -0.753503
H       0.146964    3.187559    2.809951
H       3.426831    1.848568    1.023278
H       2.085602    0.873713    1.816693
H       1.826948    2.361401   -0.915567
