19

C       0.073690    1.547638   -0.002669
C       0.040025    0.022699    0.000211
O       0.809038   -0.411837    1.131226
C      -1.393734   -0.523227    0.054333
C      -1.582151   -2.048696    0.043993
O      -0.862946   -2.576301    1.176549
C      -2.191720   -2.056470    1.386052
C      -2.126130   -0.517003    1.467635
O      -1.526615    0.107877    2.557702
H       1.109753    1.895682    0.021105
H      -0.406043    1.943882   -0.902740
H      -0.445900    1.940658    0.875515
H       0.517850   -0.347967   -0.921762
H       0.627662   -1.358044    1.241775
H      -2.002616   -0.035404   -0.712321
H      -1.730656   -2.720533   -0.793010
H      -2.900588   -2.742949    1.834340
H      -3.138501   -0.111629    1.367951
H      -0.569430   -0.028993    2.462216
