18

O      -0.062357    1.498902    0.189641
C       0.093850    0.122045    0.064374
C      -0.361582   -0.803672    1.165325
C      -1.132477   -0.736504   -0.138218
N      -2.363413    0.009070   -0.115385
C      -3.243524   -0.085436   -1.267183
C      -3.644438   -0.712429    0.037393
C      -3.679598   -2.142250    0.168475
C      -3.722912   -3.335758    0.309961
H      -1.017032    1.647359    0.257710
H       0.995550   -0.130145   -0.484804
H       0.202922   -1.705476    1.375092
H      -0.825114   -0.338140    2.028376
H      -1.084088   -1.593522   -0.808209
H      -3.719710    0.837305   -1.586574
H      -2.961361   -0.764862   -2.068338
H      -4.363903   -0.181678    0.656459
H      -3.761294   -4.390261    0.430167
