21

O      -0.128016    0.060090   -0.634253
C      -0.037233    1.171813   -0.172210
C       1.233046    1.912827   -0.024188
C       1.218531    3.433116   -0.145328
C       1.492902    2.820292    1.186770
C       0.534023    2.945343    2.340935
C       0.583535    1.894905    3.489357
C       0.347180    3.047927    4.501472
C       0.806646    4.048502    3.407427
H      -0.945030    1.724003    0.164535
H       2.090012    1.383231   -0.426055
H       2.024504    3.891315   -0.706762
H       0.248423    3.899292   -0.292201
H       2.536839    2.808457    1.493655
H      -0.493705    3.043863    1.976826
H      -0.136909    1.073993    3.459578
H       1.587843    1.470492    3.590381
H      -0.713813    3.167080    4.739062
H       0.910228    3.025725    5.436947
H       1.877736    4.263900    3.484108
H       0.269438    4.994995    3.310539
