20

C       0.190505    1.598196    0.207343
C       0.138298    0.084997    0.101059
C      -0.943947   -0.634150    0.871714
C       0.496622   -0.738593    1.324496
C       1.284640   -2.026246    1.175812
C       2.512446   -1.840762    0.291449
O       2.214177   -1.908538   -1.109265
C       1.247448   -1.149468   -1.679678
N       0.380281   -0.341630   -1.247464
H       1.202337    1.969929    0.010711
H      -0.481155    2.049973   -0.528898
H      -0.108254    1.933005    1.205140
H      -1.640935   -0.043392    1.457045
H      -1.377896   -1.512791    0.404984
H       0.763523   -0.155648    2.202807
H       1.612125   -2.376981    2.160998
H       0.673533   -2.830310    0.750188
H       3.007142   -0.885472    0.511290
H       3.239467   -2.643416    0.443366
H       1.278600   -1.347650   -2.751891
