15

O       0.009838   -0.005215    0.242651
C       0.018168    1.172285   -0.003040
C      -1.296873    1.954100   -0.214079
O      -1.205843    3.256247   -0.796435
C       0.083138    3.832146   -0.731336
O       1.043401    2.907144   -1.206495
C       1.268759    2.055491   -0.078820
C       1.200728    3.003341    1.106669
C       0.512040    4.071052    0.711460
H      -1.945248    1.350072   -0.855055
H      -1.777964    2.011809    0.773036
H       0.055694    4.700545   -1.390446
H       2.185285    1.479752   -0.208726
H       1.573286    2.763963    2.093155
H       0.199418    4.923471    1.298401
