25

C      -1.100637    0.494141   -0.006103
C       0.178003   -0.332213    0.200538
C       0.805226   -0.760442   -1.102396
C       0.147306   -1.835321   -1.993162
C       1.552627   -2.438416   -2.304283
C       2.191048   -1.350782   -1.437375
C       1.819959    0.045499   -1.894765
C       1.628233    0.412359   -3.357435
C       2.539184    1.146898   -1.127483
H      -0.887412    1.421770   -0.547530
H      -1.843552   -0.063289   -0.586793
H      -1.558994    0.760535    0.951565
H       0.888191    0.243875    0.802144
H      -0.063488   -1.226683    0.791286
H      -0.469922   -2.521348   -1.406356
H      -0.449515   -1.484736   -2.841020
H       1.670878   -3.438468   -1.880826
H       1.862378   -2.474521   -3.353904
H       3.041293   -1.501714   -0.779423
H       1.126136   -0.364695   -3.936423
H       1.031366    1.327695   -3.449802
H       2.596419    0.604801   -3.835133
H       3.481919    1.398735   -1.626927
H       1.938459    2.062936   -1.080355
H       2.782130    0.852339   -0.103402
