21

C       0.049700    1.280687   -0.129975
C       0.477175   -0.191151   -0.118807
C       0.832541   -0.686825    1.267601
C      -0.253075   -1.185523    2.207579
C       0.741058   -2.142003    1.631752
O       0.221826   -3.053078    0.677127
C       1.135210   -3.815890    0.025717
C       0.445483   -4.740034   -0.948629
O       2.320883   -3.756830    0.222348
H       0.848387    1.927904    0.248654
H      -0.195728    1.613358   -1.143346
H      -0.831273    1.439567    0.500648
H      -0.324616   -0.813687   -0.530555
H       1.342245   -0.328265   -0.780466
H       1.659166   -0.156560    1.735303
H      -0.200607   -0.956494    3.266022
H      -1.259608   -1.238331    1.805032
H       1.511673   -2.580055    2.254035
H      -0.256266   -5.388975   -0.417051
H      -0.133664   -4.159555   -1.672312
H       1.191009   -5.342720   -1.465660
