11

O      -0.050034    1.255278    0.150745
C       0.001129   -0.059108    0.064347
N       1.129465   -0.679123    0.017381
C       1.039589   -2.038991   -0.071147
F       2.204292   -2.647580   -0.117840
N       0.011768   -2.803032   -0.115465
O      -1.217887   -2.116672   -0.063573
C      -1.302512   -0.752866    0.026243
N      -2.402158   -0.131138    0.073161
H       0.864546    1.580096    0.166872
H      -3.190412   -0.780501    0.035056
