22

C      -0.527638   -2.878373   -1.445669
C      -0.342842   -1.863715   -0.310958
O       0.542758   -0.815832   -0.695304
C      -1.661960   -1.291153    0.205741
C      -2.479526   -0.496989   -0.799018
O      -1.806743    0.713378   -1.157733
C      -2.372101   -1.942332    1.343894
N      -1.722640   -0.648853    1.530689
C      -0.535662   -0.595280    2.380065
H       0.449066   -3.273155   -1.737526
H      -1.163814   -3.713746   -1.133832
H      -0.974900   -2.415869   -2.330926
H       0.157673   -2.381307    0.514561
H       0.008882   -0.152789   -1.157839
H      -2.627902   -1.046428   -1.732605
H      -3.466518   -0.276580   -0.373089
H      -1.702866    1.203464   -0.331844
H      -3.458862   -1.954316    1.389932
H      -1.893656   -2.813174    1.791753
H      -0.031994   -1.562751    2.518265
H       0.186773    0.102608    1.949554
H      -0.835704   -0.231989    3.367978
