17

C      -0.052898    1.421656    0.010769
O       0.019819    0.014131    0.002858
C      -1.246336   -0.596719    0.010615
C      -1.081904   -2.076848    0.001751
C       0.021617   -2.823476   -0.010474
C      -0.370578   -4.270571   -0.014295
O      -1.798000   -4.273093   -0.003253
C      -2.259195   -2.981966    0.005738
O      -3.426833   -2.705280    0.017296
H       0.971885    1.799474    0.003877
H      -0.581863    1.806926   -0.874629
H      -0.566470    1.797701    0.909101
H      -1.832240   -0.297289    0.897556
H      -1.847391   -0.288475   -0.863053
H       1.044467   -2.474348   -0.016562
H      -0.019561   -4.804952   -0.906407
H      -0.005819   -4.813304    0.867204
