13

O      -0.085642    0.035830    0.123057
C      -0.041759    1.225154    0.029964
N      -1.044386    2.212494    0.039903
C      -0.079014    3.308377   -0.030507
C       0.913225    3.241503    1.078901
C       1.061394    2.288245   -0.129478
C       2.207348    2.247195   -0.962429
C       3.180748    2.186963   -1.666555
H      -1.829099    2.193690    0.681887
H      -0.249496    4.160135   -0.674491
H       1.670474    4.018783    1.112348
H       0.623687    2.834776    2.043365
H       4.036205    2.129957   -2.292939
