19

C      -0.044984    1.570300   -0.016280
C      -0.007352    0.037712   -0.001970
C       0.683184   -0.512540   -1.275954
C      -0.010948   -0.123668   -2.500694
N      -0.573863    0.194908   -3.458339
C       0.706466   -0.507931    1.268126
C       0.050046   -0.052891    2.587988
C       0.767702   -1.974763    1.237035
N       0.804091   -3.129891    1.207893
H       0.965484    1.989994    0.057602
H      -0.489874    1.929763   -0.947767
H      -0.639869    1.969194    0.807817
H      -1.035517   -0.343298    0.007308
H       1.715835   -0.145180   -1.331253
H       0.734972   -1.605707   -1.240505
H       1.744751   -0.147616    1.254491
H       0.127839    1.029568    2.702498
H      -1.006836   -0.333465    2.612256
H       0.545445   -0.522172    3.440968
