17

C       0.245006    1.503824    0.063509
C       0.108977    0.055557    0.127290
C       0.013655   -1.143606    0.185336
C      -0.147124   -2.592068    0.246429
C      -1.599800   -3.025620   -0.003583
C      -2.122999   -2.642058   -1.387422
O      -3.257447   -2.836854   -1.737880
C      -1.810946   -4.526112    0.194447
O      -0.958260   -5.272333    0.595782
H       0.994058    1.800410   -0.678759
H      -0.701933    1.980459   -0.212550
H       0.554073    1.916487    1.030066
H       0.503205   -3.081036   -0.490313
H       0.173512   -2.981430    1.218050
H      -2.278156   -2.535833    0.710102
H      -1.368285   -2.190005   -2.065712
H      -2.830350   -4.874125   -0.069203
