17

C       0.081243    1.571067   -0.181861
C      -0.044907    0.082637    0.058648
C       1.140419   -0.838277   -0.091405
C       0.531477   -0.609092    1.276287
C       1.290665    0.129117    2.364587
C       2.257444   -0.790016    3.082895
O       2.309073   -0.941100    4.276223
H       1.063628    1.953939    0.109533
H      -0.051744    1.800876   -1.244597
H      -0.675095    2.133158    0.377164
H      -0.994896   -0.329586   -0.272018
H       1.008534   -1.802931   -0.568717
H       2.102003   -0.374853   -0.293466
H      -0.070508   -1.429086    1.660016
H       1.886028    0.939980    1.924095
H       0.619368    0.571768    3.107281
H       2.943348   -1.347080    2.403110
