20

C      -0.098275    1.568812    0.067049
C       0.033408    0.047579    0.027580
C      -1.324859   -0.611033   -0.221841
C       1.136527   -0.541555   -0.928960
C       1.781969   -1.259798    0.269244
C       2.195150   -0.247166    1.314496
C       0.750656   -0.618330    1.223689
C       2.282589   -2.593866    0.257154
N       2.680593   -3.681241    0.232291
H       0.859231    2.062034    0.258486
H      -0.480105    1.946856   -0.887917
H      -0.797736    1.880021    0.850948
H      -1.746788   -0.283618   -1.178153
H      -1.239703   -1.702320   -0.244696
H      -2.037297   -0.346017    0.567598
H       0.725669   -1.225141   -1.673507
H       1.788499    0.180053   -1.430239
H       2.727546   -0.655817    2.166376
H       2.552180    0.724492    0.984792
H       0.242105   -1.103079    2.049312
