16

O       0.059517    0.016561   -0.088035
C       0.058748    1.206369   -0.169000
O       1.084882    1.966741    0.278828
C       0.953753    3.365177    0.182115
C       0.300453    4.350277    1.136369
N       0.898924    5.272762    0.074876
C       2.131519    4.335802   -0.061898
C       1.993069    4.309212   -1.587864
C       0.561350    4.255392   -1.041924
H      -0.755545    1.805391   -0.616182
H      -0.791832    4.388911    1.182020
H       0.744080    4.480392    2.127114
H       3.006278    4.482015    0.571755
H       2.270245    5.226841   -2.110928
H       2.361845    3.418613   -2.099755
H      -0.398167    4.310645   -1.557362
