15

C      -0.267414    1.510846   -0.064821
C       0.082916    0.039189   -0.037949
O       1.281007   -0.262379   -0.790162
C       1.949294   -0.806880    0.358421
C       0.711009   -0.565865    1.265854
C       0.883025    0.291202    2.418642
C       1.037551    1.005587    3.373838
H       0.545322    2.116081    0.344282
H      -0.453848    1.823862   -1.096776
H      -1.171144    1.701263    0.523336
H      -0.759593   -0.561197   -0.406016
H       2.224770   -1.859204    0.220843
H       2.839431   -0.230959    0.634669
H       0.220307   -1.496434    1.562570
H       1.171307    1.633236    4.219878
