13

C       0.004004    1.442632   -0.027561
N      -0.005759    0.000887    0.077843
N      -0.073425   -0.782833   -1.060028
N      -0.072391   -2.041155   -0.762762
C      -0.003160   -2.116504    0.605008
N       0.038270   -3.013956    1.599550
N       0.100545   -2.211339    2.657416
N       0.106823   -0.874244    2.477540
C       0.039134   -0.828053    1.146727
H       0.922332    1.854115    0.400957
H      -0.046763    1.688826   -1.088390
H      -0.857914    1.872800    0.490465
H       0.143552   -2.594673    3.589467
