16

O      -0.291050    0.589470    1.170434
C       0.554557    0.735799    0.326796
C       1.247336    2.062261    0.016606
C       1.497591    2.938045    1.266074
C       2.976712    2.724180    1.550400
C       3.467816    1.289899    1.649608
C       3.525226    2.030185    0.338843
O       2.505011    1.816175   -0.609234
H       0.894663   -0.097708   -0.327317
H       0.606807    2.566992   -0.720529
H       1.310788    3.992282    1.044327
H       0.829261    2.634245    2.076062
H       3.524346    3.506847    2.061119
H       4.408645    1.125340    2.164257
H       2.749406    0.487172    1.781866
H       4.469600    2.269324   -0.134596
