19

C      -0.052724    1.552349    0.049268
C       0.020694    0.021183    0.041131
C       0.815101   -0.539074    1.180684
C       2.259120   -0.216132    1.675175
C       1.574426   -1.092088    2.750625
O       0.339295   -0.294508    2.577711
C       1.051940   -1.997237    1.627903
C       0.350319   -3.259211    1.519669
O       1.675057   -3.049930    0.949180
H       0.941674    1.996762   -0.058886
H      -0.674276    1.915435   -0.773989
H      -0.481235    1.912364    0.988496
H      -0.988683   -0.405798    0.088149
H       0.471939   -0.339016   -0.891741
H       3.096430   -0.644867    1.118976
H       2.418217    0.820824    1.973761
H       1.888902   -1.325187    3.766648
H       0.319230   -3.942857    2.365789
H      -0.446646   -3.383566    0.788982
