19

C       0.042858    1.400057   -0.154450
C      -0.001182   -0.086573   -0.016528
O       0.569165   -0.919750   -1.074597
C       0.076690   -1.890494   -0.100445
C       0.242890   -3.348879   -0.378772
C       0.483267   -1.028108    1.137078
C      -0.920056   -1.103430    1.775060
C      -1.206174   -1.038344    0.257097
O      -2.406883   -0.956173   -0.411449
H       1.075767    1.748128   -0.250263
H      -0.513922    1.714975   -1.042117
H      -0.405688    1.877885    0.722156
H       1.299505   -3.598382   -0.517502
H      -0.145258   -3.945480    0.453338
H      -0.296808   -3.628467   -1.289342
H       1.460516   -1.011301    1.614259
H      -1.173512   -2.036405    2.288141
H      -1.235325   -0.241423    2.369456
H      -2.941591   -1.725979   -0.188468
