16

N       0.003658   -1.195618   -0.303618
C      -0.033442   -0.059819   -0.091165
C      -0.034328    1.374874    0.187019
N      -1.164863    1.945297    0.089988
C      -1.436749    3.354082    0.203737
C      -0.457161    4.360968    0.734256
C       0.783418    4.209359    1.184500
C       1.596118    2.959220    1.312800
N       1.241021    1.835248    0.455491
H      -1.749510    3.684479   -0.800825
H      -2.357974    3.451329    0.798900
H      -0.873828    5.367543    0.752715
H       1.300327    5.088220    1.562397
H       2.641821    3.199781    1.087595
H       1.582325    2.647440    2.371993
H       1.926960    1.094645    0.477484
