20

C      -0.113615    1.486099   -0.102814
N       0.039705    0.045824    0.039220
C      -1.175011   -0.741590    0.206851
C      -1.370093   -1.812541   -0.876866
C      -0.661630   -3.125262   -0.541614
C       0.752252   -3.019816   -0.055141
C       1.513864   -1.951040    0.200402
C       1.306738   -0.480640    0.040864
O       2.303781    0.225409   -0.065235
H       0.877710    1.920446   -0.218335
H      -0.723364    1.729004   -0.982019
H      -0.598264    1.917563    0.781928
H      -1.200463   -1.207956    1.202089
H      -2.006372   -0.033775    0.174108
H      -2.439414   -2.014353   -1.003626
H      -1.007491   -1.410005   -1.829004
H      -1.233626   -3.661786    0.231114
H      -0.681469   -3.793667   -1.413466
H       1.222233   -3.987869    0.117115
H       2.536777   -2.127403    0.519658
