20

C       0.850974    1.700138    0.156525
C       1.137121    0.375683   -0.453997
N      -0.172200    0.654822    0.135672
C      -0.446093    0.013647    1.398663
C      -1.667002    0.460219    2.241628
C      -2.842935    0.443552    1.246146
C      -2.543138   -0.948189    0.604743
C      -1.291160   -1.284481    1.437513
O      -1.695699   -0.896005    2.788241
H       1.328895    1.924075    1.108804
H       0.651991    2.565410   -0.468742
H       1.150968    0.256147   -1.533241
H       1.807150   -0.289243    0.088521
H       0.435563   -0.095457    2.047510
H      -1.615835    1.243799    2.997731
H      -3.800521    0.474969    1.769625
H      -2.794164    1.263248    0.526932
H      -3.336802   -1.677733    0.777519
H      -2.330836   -0.887523   -0.464270
H      -0.856329   -2.281991    1.372769
