18

C       0.265418    1.631896    0.036093
C       0.093512    0.130789   -0.034377
C       0.562379   -0.693286   -1.226489
C       1.333902   -0.079223   -2.374123
N       2.663084    0.346567   -1.963874
C       3.294124    0.193132   -0.761066
O       4.441455    0.513784   -0.572793
O       2.560905   -0.312255    0.267719
C       1.257901   -0.815621    0.096177
H       1.192860    1.966852   -0.432879
H      -0.565208    2.139616   -0.465393
H       0.282887    1.967824    1.077559
H      -0.824127   -0.231747    0.422064
H      -0.069302   -1.524087   -1.521484
H       1.423517   -0.828074   -3.172070
H       0.790900    0.775797   -2.800722
H       3.280965    0.710594   -2.671301
H       1.143182   -1.719741    0.683773
