20

C      -0.134107    1.548430   -0.000101
C       0.054358    0.033700    0.014726
C       1.065103   -0.580059   -0.996291
C       2.423949   -0.001124   -0.472582
C       2.229243   -0.010255    1.073805
C       0.783794   -0.593164    1.237591
C       0.868207   -2.039656    0.779156
C       1.035444   -2.031871   -0.547938
H       0.800908    2.101589    0.120620
H      -0.586990    1.869250   -0.944885
H      -0.807116    1.859005    0.806901
H      -0.922373   -0.445289   -0.111082
H       0.877371   -0.397055   -2.055788
H       3.269814   -0.611531   -0.796659
H       2.589980    1.012306   -0.849961
H       2.969257   -0.625625    1.590340
H       2.295077    0.998483    1.492293
H       0.339008   -0.422105    2.219516
H       0.895655   -2.895947    1.442226
H       1.227746   -2.880489   -1.193320
