15

C       0.737429    0.799695   -0.566941
C      -0.446860    0.284835    0.257251
N      -0.831683   -1.062795   -0.150035
C      -1.807829   -1.212311   -0.928780
N      -2.298270   -2.420135   -1.417070
C      -3.373934   -2.142805   -2.203621
N      -3.631516   -0.884249   -2.292617
O      -2.632398   -0.258350   -1.486206
H       1.068247    1.776243   -0.198401
H       1.578783    0.102998   -0.506879
H       0.460147    0.908225   -1.620205
H      -0.154119    0.235052    1.312355
H      -1.282127    0.994479    0.186782
H      -1.914866   -3.315635   -1.173539
H      -3.959044   -2.896109   -2.709415
