15

N       0.116362    1.164848   -0.009958
C       0.012178   -0.079116    0.062988
O       0.985277   -1.058946    0.298096
C       0.006916   -2.095298    0.032132
C      -1.075177   -2.057024    1.050974
C      -0.854736   -1.646632    2.500261
C      -0.571115   -2.803180    3.349817
N      -0.357453   -3.730109    4.005458
C      -1.096492   -1.064182   -0.117813
H       1.078727    1.471568    0.140781
H       0.319889   -2.926693   -0.583674
H      -1.816485   -2.841085    0.916095
H      -0.017951   -0.945705    2.569490
H      -1.741699   -1.133843    2.887811
H      -1.925614   -0.981869   -0.804681
