18

C      -0.177589    1.527338    0.062902
C       0.124442    0.020096   -0.019363
C       0.741465   -0.523410    1.230109
N       2.009985   -0.799534    1.339720
O       2.205065   -1.258438    2.606978
N       1.022823   -1.263890    3.325927
C       0.114837   -0.824303    2.489836
N      -1.221663   -0.747139    2.788944
C      -1.644019   -0.932559    4.170219
H       0.742685    2.097590    0.216048
H      -0.649106    1.875273   -0.860496
H      -0.853589    1.764457    0.891924
H      -0.800116   -0.532790   -0.227146
H       0.806898   -0.175115   -0.850808
H      -1.722411   -0.038028    2.276810
H      -1.215425   -0.185739    4.852436
H      -2.733639   -0.879488    4.215430
H      -1.325636   -1.919661    4.514146
