20

C       0.024381    1.543693   -0.030504
C      -0.050616    0.016983    0.044798
C       0.750569   -0.554538    1.212983
N       0.626895   -2.002407    1.278733
C       1.340054   -2.667533    2.273154
C       1.957496   -2.144535    3.375069
O       2.487481   -3.151322    4.142560
C       2.214376   -4.313095    3.509570
C       1.515768   -4.093318    2.366810
H       1.058012    1.886705   -0.148441
H      -0.551751    1.926110   -0.878065
H      -0.376208    2.004398    0.878952
H      -1.093263   -0.307590    0.140455
H       0.324514   -0.414845   -0.893660
H       1.805654   -0.233216    1.139226
H       0.367197   -0.142172    2.156060
H       0.720444   -2.442364    0.372819
H       2.093680   -1.146518    3.751208
H       2.575598   -5.207917    3.989729
H       1.157222   -4.837932    1.672865
