21

C       1.561254    0.988871   -1.031604
C       0.874474   -0.255960   -0.493030
C      -0.274960   -0.714635   -1.374955
C       1.718726   -1.391647    0.136098
C       3.187076   -1.351181    0.257016
O       3.892667   -2.333980    0.222189
C       0.779047   -0.495742    0.979321
C       1.324209    0.459232    2.020071
O      -0.410362   -1.111494    1.391502
H       2.384519    1.345486   -0.411258
H       1.962487    0.796059   -2.032357
H       0.835559    1.805286   -1.118743
H       0.092667   -0.961047   -2.376809
H      -0.780346   -1.586536   -0.960518
H      -1.017083    0.085361   -1.478339
H       1.335542   -2.393433   -0.031812
H       3.639045   -0.343672    0.392066
H       2.245967    0.954092    1.711603
H       0.576031    1.226183    2.243594
H       1.541099   -0.080943    2.949574
H      -0.220193   -1.623214    2.185886
