22

C      -0.027495    1.459909   -0.395567
C      -0.081710    0.095898    0.306847
C      -1.454312   -0.564832    0.213164
C      -2.536834    0.166118    0.988749
N      -1.774715   -1.133261   -1.096410
C      -1.534450   -2.078660    0.007646
C      -0.314506   -2.979467   -0.074783
C      -2.734742   -2.782970    0.547704
O      -3.880488   -2.514441    0.264495
H       0.989648    1.862264   -0.371196
H      -0.328501    1.358840   -1.442608
H      -0.683012    2.196259    0.078513
H       0.674977   -0.550339   -0.141138
H       0.184492    0.207393    1.365527
H      -2.676285    1.169464    0.573490
H      -3.497017   -0.347069    0.945120
H      -2.249317    0.284321    2.039292
H      -2.783733   -1.097420   -1.251423
H       0.492038   -2.506730   -0.633353
H       0.055998   -3.241536    0.922382
H      -0.564014   -3.911164   -0.594796
H      -2.503571   -3.625474    1.235765
