21

C      -0.040139    1.547220    0.089644
C       1.511427    1.479174   -0.024855
C       2.086691    1.371261    1.396189
C       1.853248   -0.063972    1.893729
C       2.880941   -0.991843    1.180991
C       1.822528   -1.197326    0.092577
C       1.361070    0.054464   -0.720957
C      -0.037606    0.019696   -0.027703
C       0.689596   -0.795932    1.089297
H      -0.453845    2.019432    0.987375
H      -0.501986    1.998360   -0.794429
H       1.996979    2.257213   -0.617294
H       3.160487    1.589988    1.423708
H       1.598829    2.114220    2.037780
H       1.802282   -0.128731    2.982444
H       3.849479   -0.553409    0.916851
H       3.050283   -1.923074    1.731033
H       1.794591   -2.121653   -0.489763
H       1.485449    0.065598   -1.804861
H      -0.894053   -0.507514   -0.455289
H       0.126985   -1.526330    1.672762
