19

C       0.149701    1.412254    0.111462
O      -0.061239    0.007195   -0.006603
C       0.568805   -0.558020   -1.088090
C      -0.039965   -0.966762   -2.257065
C      -1.470759   -0.890240   -2.666926
N       0.947195   -1.518428   -3.033309
C       2.165764   -1.474719   -2.377210
C       1.959362   -0.877298   -1.155168
N       2.890954   -0.549121   -0.148902
H       1.217090    1.650402    0.195180
H      -0.264167    1.947555   -0.753290
H      -0.368486    1.734775    1.018321
H      -1.621340   -0.262649   -3.554604
H      -1.893597   -1.878331   -2.889074
H      -2.050402   -0.458750   -1.847581
H       0.800239   -1.928379   -3.937538
H       3.061622   -1.863718   -2.832593
H       3.720311   -1.128620   -0.189168
H       2.471614   -0.650325    0.768880
