19

C      -0.269654    1.504433    0.100561
C      -0.107033    0.010371   -0.122142
C       0.875906   -0.348183   -1.220803
O       0.994320   -1.752055   -1.309885
C       1.532046   -2.336296   -0.129534
C       3.062762   -2.424782   -0.183189
C       1.086038   -1.676357    1.182140
O       1.411047   -2.132881    2.245197
O       0.334172   -0.556893    1.136117
H       0.695166    1.971953    0.319066
H      -0.695322    1.976813   -0.789912
H      -0.938491    1.688956    0.944450
H      -1.075116   -0.448660   -0.359271
H       0.507869    0.001248   -2.189424
H       1.848321    0.133785   -1.028904
H       1.122765   -3.351644   -0.093433
H       3.518067   -1.430918   -0.236143
H       3.435505   -2.924980    0.712525
H       3.361473   -2.990078   -1.069056
