20

C      -0.061618    1.577069   -0.013032
C      -0.011623    0.043316   -0.010248
C       0.813066   -0.461755    1.203281
O       0.117668   -0.335929    2.428166
C      -1.445751   -0.499153    0.082989
O      -1.381724   -1.887176    0.415258
C       0.682086   -0.511174   -1.284130
C       0.101701   -0.014729   -2.529211
N      -0.380091    0.381818   -3.502443
H       0.930403    1.999432   -0.204533
H      -0.740315    1.960023   -0.781358
H      -0.399327    1.935472    0.963322
H       1.120656   -1.502015    1.033852
H       1.722456    0.143035    1.294363
H      -0.534364   -1.046711    2.433860
H      -1.988371    0.058319    0.857712
H      -1.965454   -0.343372   -0.872120
H      -2.261888   -2.263800    0.325665
H       1.747926   -0.253993   -1.271706
H       0.611290   -1.604272   -1.282310
