16

C       0.181690    1.620301   -0.461140
C      -0.036096    0.184177   -0.068462
O       1.101227   -0.686634    0.006963
C       0.438710   -0.410330    1.220100
C       1.176506    0.431973    2.243597
N       0.697156    0.277331    3.510234
O       2.090102    1.178144    1.961885
C      -1.236437   -0.514287   -0.649141
O      -2.151286    0.049214   -1.189502
H       1.054593    2.027085    0.046832
H       0.326316    1.683831   -1.543656
H      -0.706614    2.207840   -0.214105
H      -0.125123   -1.253561    1.627690
H      -0.027206   -0.378221    3.744469
H       1.129185    0.806309    4.249989
H      -1.196496   -1.621310   -0.536632
