19

C      -0.089700    1.608226    0.006086
C      -0.022809    0.091938   -0.090433
C       0.772928   -0.527467   -1.245142
O       2.155814   -0.153159   -1.059220
C       1.645866   -1.286271   -0.334580
C       2.365737   -2.588111   -0.474160
O       1.473969   -3.611928   -0.056459
C       0.950136   -0.686555    0.898775
O       1.763075    0.057987    1.764295
H       0.894068    2.056570   -0.157875
H      -0.773558    2.019045   -0.744066
H      -0.442126    1.919227    0.994012
H      -1.023213   -0.349863   -0.036571
H       0.467107   -0.756305   -2.259855
H       2.682471   -2.711323   -1.520830
H       3.273302   -2.566956    0.149267
H       1.981681   -4.418428    0.069675
H       0.424514   -1.430155    1.499793
H       2.339684    0.589645    1.200979
