18

C       0.102045    1.397430   -0.041533
N       0.309906   -0.043322   -0.076433
C       0.583904   -0.650117    0.978886
O       0.741663   -0.178821    2.279448
C       0.983399   -1.525353    2.778835
C       0.844693   -2.099386    1.351005
C      -0.291938   -3.106393    1.112880
C      -0.409720   -3.525730   -0.277509
C      -0.487944   -3.886262   -1.420534
H       0.845881    1.881373   -0.684193
H      -0.881603    1.625174   -0.466190
H       0.164942    1.837065    0.960743
H       1.969332   -1.603793    3.243440
H       0.206702   -1.826126    3.488885
H       1.779402   -2.483330    0.936147
H      -0.113081   -3.987260    1.743807
H      -1.239587   -2.669846    1.452912
H      -0.565808   -4.188094   -2.435431
