20

C       0.270712    1.674093   -0.580172
N       0.440853    0.250631   -0.328435
C       1.698419   -0.446726   -0.394330
C       0.903435   -0.361584    0.890748
C       2.070909    0.351283    1.610433
C       1.845373    1.633274    2.393949
O       2.647222   -0.646384    2.458669
C       2.867117    0.357135    0.233352
O       4.094833   -0.313094    0.291432
H       1.133637    2.308739   -0.340386
H       0.049460    1.805708   -1.644080
H      -0.591403    2.034539   -0.010734
H       1.824474   -1.274494   -1.085529
H       0.278509   -1.103259    1.379110
H       1.194940    1.444761    3.254231
H       2.800734    2.025518    2.767480
H       1.389516    2.415112    1.784331
H       3.344681   -0.222195    2.971985
H       3.058800    1.337218   -0.213196
H       3.964981   -1.025192    0.935221
