18

C       0.001456    1.577436    0.046699
C       1.502040    1.956891   -0.088873
C       2.180801    0.585136    0.120976
O       1.289532   -0.309738   -0.546552
C       0.016126    0.021613    0.016546
C      -0.072454   -0.605745    1.418847
C       1.197133   -0.325451    2.187069
C       2.250339    0.233675    1.593003
H      -0.436267    1.956621    0.973289
H      -0.584540    1.979502   -0.782662
H       1.725500    2.333226   -1.091108
H       1.819412    2.707331    0.638929
H       3.157246    0.499951   -0.362363
H      -0.748543   -0.393447   -0.644612
H      -0.943367   -0.205541    1.954985
H      -0.234357   -1.689639    1.339818
H       1.227712   -0.601932    3.237850
H       3.159869    0.468367    2.138509
