15

N       0.090769   -1.171630   -0.044353
C       0.103816   -0.017881   -0.088095
C       0.115776    1.443810   -0.171482
N       1.410517    1.979346    0.200808
C       1.566090    3.360218    0.097376
C       0.611928    4.352330    0.092123
N       1.341152    5.531531    0.027911
C       2.653001    5.197288   -0.012874
N       2.827928    3.893580    0.025520
H      -0.208733    1.737411   -1.185820
H      -0.643964    1.828623    0.521578
H       2.195427    1.485932   -0.203371
H      -0.462802    4.348455    0.133830
H       0.958441    6.461139    0.007064
H       3.439160    5.934574   -0.072208
