23

C       0.086871    1.598770    0.045751
C      -0.026907    0.061782   -0.003403
C       0.561428   -0.463759   -1.322219
C       0.355569   -1.961411   -1.625490
C       0.573033   -2.238099   -3.123564
C       1.236442   -2.868469   -0.801587
C       1.620981   -2.708017    0.472083
C       1.267387   -1.658244    1.423538
C       0.569030   -0.526224    1.250476
H       1.136375    1.913215    0.032108
H      -0.414979    2.057832   -0.811712
H      -0.369088    1.999294    0.956871
H      -1.103494   -0.174004    0.002406
H       0.102827    0.111639   -2.135738
H       1.635175   -0.239010   -1.353761
H      -0.693306   -2.209548   -1.398162
H       1.595512   -1.981745   -3.423945
H       0.413355   -3.296013   -3.356221
H      -0.115328   -1.650031   -3.738248
H       1.598783   -3.755087   -1.319115
H       2.261490   -3.483256    0.887815
H       1.615128   -1.852809    2.436474
H       0.406960    0.081281    2.140160
