15

C       0.339721   -1.256932   -0.113095
C       0.194544   -0.064210   -0.068505
C       0.007456    1.361032   -0.039594
C      -1.098116    1.886869   -0.960018
C      -2.436334    1.452008   -0.554850
N      -3.493616    1.120012   -0.228923
C       0.249497    2.096929    1.268329
C       1.234091    2.242955    0.145108
H       0.461253   -2.311513   -0.141780
H      -1.081152    2.982156   -0.966857
H      -0.917956    1.556022   -1.988592
H      -0.408578    2.929481    1.492234
H       0.529886    1.498810    2.126221
H       2.189922    1.740840    0.229494
H       1.260876    3.178822   -0.402902
