17

C      -0.059559    1.436769   -0.091347
N       0.035076   -0.002524    0.032814
C       0.652369   -0.618438    1.062611
C       1.274359   -0.049340    2.131013
C       1.812648   -1.070445    3.016696
O       2.423553   -0.919771    4.055472
C       1.469876   -2.446503    2.400683
C       0.700817   -2.133180    1.105683
H       0.934742    1.897378   -0.141866
H      -0.602559    1.684382   -1.005083
H      -0.594235    1.874631    0.760550
H      -0.378928   -0.572220   -0.684276
H       1.376036    1.008028    2.330465
H       2.393327   -3.004364    2.222465
H       0.880276   -3.027194    3.115461
H      -0.314896   -2.547069    1.103839
H       1.199235   -2.524035    0.210249
