19

C       0.355965    1.769922   -0.531701
O       0.836196    0.509322   -0.081807
C       0.751917   -0.509410   -1.032274
C       1.074110   -1.919770   -0.448585
O       0.764612   -1.970086    0.922824
C      -0.084364   -2.531424   -1.308329
C      -0.982502   -3.610186   -0.724541
C      -0.630458   -1.097556   -1.420248
O      -1.723164   -0.626636   -1.557034
H       0.952670    2.135573   -1.380082
H      -0.695267    1.709563   -0.831085
H       0.463145    2.464433    0.303909
H       1.348229   -0.289640   -1.932991
H       2.079673   -2.307177   -0.645144
H       0.838974   -1.066252    1.257524
H       0.313373   -2.829832   -2.287619
H      -1.255284   -3.356739    0.301592
H      -1.897342   -3.699573   -1.317362
H      -0.480910   -4.582409   -0.717324
