19

C       0.122907    1.489366   -0.227313
C      -0.046816    0.018477   -0.090556
C      -1.123557   -0.796125    0.120546
C      -0.596536   -2.138144    0.151437
C       0.739977   -2.030719   -0.040900
O       1.095924   -0.728819   -0.190306
C      -2.534247   -0.387547    0.283271
C      -3.661904   -1.245250   -0.256154
C      -3.457477   -1.130639    1.228619
H       0.791353    1.890562    0.543501
H       0.550690    1.756250   -1.200817
H      -0.841054    1.993581   -0.133174
H      -1.148899   -3.053730    0.298175
H       1.543333   -2.746725   -0.096345
H      -2.698509    0.683525    0.223216
H      -4.514184   -0.744308   -0.702055
H      -3.389784   -2.176750   -0.740556
H      -3.045994   -1.983984    1.756699
H      -4.168822   -0.550651    1.806336
