19

C      -0.023929    1.518231   -0.081856
C      -0.004643    0.014440    0.029130
C       1.238801   -0.784445   -0.231749
C       0.636232   -0.757709    1.168423
C       1.380906   -0.197125    2.352324
C      -0.262595   -1.933366    1.413600
O      -0.183880   -2.753610    2.282736
O      -1.251130   -1.965347    0.468847
C      -1.290041   -0.742202   -0.281310
H       0.931901    1.951610    0.225232
H      -0.208537    1.832126   -1.115686
H      -0.809209    1.954768    0.545211
H       1.180093   -1.697901   -0.816122
H       2.166030   -0.232586   -0.349016
H       2.048654    0.615814    2.054831
H       0.692527    0.186211    3.112261
H       1.982100   -0.982919    2.818692
H      -2.172742   -0.170548    0.031389
H      -1.396806   -0.998331   -1.340493
