21

C      -0.070222    1.699041    0.121830
C       0.192987    0.202926   -0.076727
C       0.715234   -0.479202    1.189169
C      -0.376262   -0.714655    2.292151
C      -0.327896   -2.200758    1.928851
O      -1.075292   -3.131449    2.079629
C       0.944864   -2.034384    1.099600
C       0.956244   -2.823296   -0.212154
O       0.905960   -4.211186    0.056587
H       0.846441    2.225121    0.410260
H      -0.444476    2.159460   -0.797344
H      -0.813001    1.875379    0.907228
H      -0.730517   -0.289213   -0.409238
H       0.919659    0.066766   -0.887217
H       1.594385    0.058052    1.554401
H      -0.022113   -0.531975    3.311616
H      -1.344977   -0.222430    2.167629
H       1.814042   -2.336535    1.696000
H       0.118078   -2.507422   -0.851936
H       1.879633   -2.640791   -0.772025
H       0.123482   -4.358200    0.605058
