23

C      -0.004771    1.564327    0.011372
C       0.127277    0.043399    0.009018
C       0.935662   -0.549937   -1.168230
C       1.589927   -1.783159   -0.578933
C       2.265486   -2.774257   -1.475290
C       1.479151   -1.811236    0.758363
C       2.008294   -2.818993    1.731971
C       0.796736   -0.559572    1.274974
O       1.736115    0.304495    1.928472
H       0.973561    2.048086    0.087588
H      -0.485591    1.913977   -0.908372
H      -0.604892    1.910224    0.858885
H      -0.877540   -0.394916   -0.037991
H       0.299325   -0.788208   -2.029852
H       1.695242    0.152358   -1.545357
H       3.042755   -2.288910   -2.079913
H       2.730759   -3.594642   -0.924085
H       1.550597   -3.208763   -2.186011
H       2.622174   -3.588569    1.257677
H       2.612825   -2.321477    2.499157
H       1.188514   -3.323238    2.260317
H       0.054209   -0.766259    2.054342
H       2.509739    0.365698    1.356781
