23

C       0.132381    1.222582    0.266666
O      -0.313533   -0.016722   -0.234507
C       0.516866   -0.540678   -1.235183
C       1.877946   -1.180541   -0.834786
C       1.563691   -2.336610   -1.827342
C       1.941339   -3.756608   -1.429817
C       1.484307   -4.802332   -2.439689
O       1.895598   -6.077046   -1.967788
C       0.066198   -1.906544   -1.782945
H       1.123943    1.145035    0.737778
H       0.188519    1.986000   -0.525946
H      -0.588904    1.549310    1.019712
H       0.654113    0.197475   -2.042124
H       2.795429   -0.606592   -0.984925
H       1.834212   -1.529945    0.202145
H       1.987270   -2.103132   -2.811698
H       3.029683   -3.838377   -1.315244
H       1.503980   -3.999458   -0.453317
H       0.389307   -4.755609   -2.556018
H       1.924898   -4.581919   -3.426555
H       1.586132   -6.742016   -2.589476
H      -0.477520   -2.450493   -1.003805
H      -0.517283   -1.922753   -2.706077
