21

O      -0.544312    1.384858    1.052760
C       0.199446    1.289685    0.110478
C       1.394245    2.176754   -0.153437
C       1.285905    2.880006   -1.524621
C       0.160020    3.957756   -1.582115
C       0.852251    5.313237   -1.566236
C       1.836157    5.602432   -0.459224
C       2.332803    5.104410   -1.794138
C       2.594525    3.614291   -1.952368
H       0.035946    0.505682   -0.668198
H       1.491686    2.880464    0.676818
H       2.283256    1.529488   -0.159925
H       1.068181    2.093813   -2.256744
H      -0.406531    3.857362   -2.514458
H      -0.557863    3.837538   -0.762709
H       0.330885    6.153328   -2.011931
H       2.018553    6.645792   -0.224421
H       1.878426    4.949860    0.405875
H       2.906376    5.787587   -2.411093
H       3.459372    3.269044   -1.374010
H       2.813889    3.399838   -3.004387
