21

C      -0.085351    1.514740    0.283390
C       0.002662   -0.013413    0.234490
C       0.653664   -0.559579   -1.046548
C       2.139120   -0.160347   -1.175740
C       0.529692   -2.074898   -1.125857
N       0.355729   -2.792595   -0.096733
N       0.662142   -2.562851   -2.453532
C       0.650349   -3.872282   -2.861611
O       0.529026   -4.839788   -2.144067
H       0.901254    1.988318    0.300047
H      -0.630839    1.913479   -0.580212
H      -0.615211    1.838492    1.184324
H       0.556369   -0.392892    1.098876
H      -1.001258   -0.441572    0.319520
H       0.113396   -0.138601   -1.909363
H       2.253245    0.925584   -1.218684
H       2.704526   -0.533520   -0.316066
H       2.596195   -0.575829   -2.079745
H       0.325835   -3.782560   -0.341380
H       0.764997   -1.873722   -3.183565
H       0.766860   -3.953524   -3.960109
