16

C      -0.090898    1.493621    0.049422
C      -0.007317    0.005911   -0.019263
C       0.032837   -0.843371   -1.112084
N       0.008898   -0.587407   -2.516743
C       0.111170   -2.178731   -0.619249
O       0.167519   -3.276313   -1.416059
C       0.117574   -2.129603    0.751586
N       0.044849   -0.787271    1.095656
H       0.772718    1.939046    0.559590
H      -0.121220    1.905594   -0.962982
H      -0.992072    1.839242    0.571845
H       0.794426   -0.024635   -2.825794
H      -0.839447   -0.117602   -2.814894
H       0.141721   -2.923372   -2.318626
H       0.167249   -2.905567    1.495446
H       0.031625   -0.445093    2.039480
