15

C       0.027242    1.449059   -0.108879
C       0.013236   -0.043394   -0.053072
N       0.596342   -0.943485   -1.108787
C       0.064379   -1.915523   -0.103472
C       0.140234   -3.344127   -0.235294
N       0.180325   -4.495081   -0.338690
C       0.489731   -0.998077    1.093233
O      -0.798592   -1.043154    1.756283
C      -1.152279   -1.023084    0.350644
H       1.049779    1.819191   -0.227147
H      -0.570777    1.819158   -0.948052
H      -0.390561    1.856963    0.816598
H       0.007748   -0.946563   -1.946124
H       1.404034   -1.014197    1.683308
H      -2.203044   -1.070775    0.061686
