16

O      -0.031571   -0.147439   -0.112388
C      -0.012694    1.063007    0.062729
C      -1.319495    1.749311    0.279685
C      -1.604783    3.052864    0.299016
C      -0.714772    4.203533    0.025219
C       0.063168    4.926258    1.096684
N       0.728979    4.168141    0.041931
C       1.544531    3.072712    0.277099
C       1.279657    1.759093    0.173682
H      -2.123821    1.033973    0.426443
H      -2.642412    3.343006    0.460377
H      -1.098640    4.844076   -0.771172
H       0.171726    6.006658    1.059318
H       0.051531    4.484704    2.089835
H       2.567612    3.379173    0.489451
H       2.118592    1.073161    0.231147
