18

C       0.111193    1.531799   -0.193680
C       0.007064    0.028710   -0.072790
C       1.158129   -0.813989   -0.422805
O       0.817794   -0.569401    0.955549
C      -1.388391   -0.605557   -0.143591
O      -1.323458   -1.988021    0.106356
C      -2.363844    0.080664    0.848987
C      -3.690450   -0.528235    0.823881
N      -4.749178   -0.989385    0.797420
H       1.158772    1.839466   -0.218414
H      -0.372164    1.879561   -1.113158
H      -0.363994    2.037077    0.652391
H       0.996513   -1.833187   -0.761442
H       2.078560   -0.338559   -0.755784
H      -1.783983   -0.488392   -1.159082
H      -0.735621   -2.092673    0.869041
H      -1.955093    0.008161    1.863990
H      -2.470223    1.145340    0.617428
