20

C       0.044615    1.335273   -0.333628
O      -0.064590    0.079283    0.293687
C      -1.339050   -0.499498    0.158810
C      -1.528082   -1.254682   -1.193972
C      -1.009425   -2.547597   -0.503644
C      -1.367394   -1.881490    0.855700
O      -0.531183   -2.021357    1.961736
C      -0.597975   -3.301304    2.547401
H       1.056445    1.702715   -0.146159
H      -0.112927    1.278004   -1.421533
H      -0.678645    2.057036    0.078358
H      -2.117926    0.220480    0.450190
H      -2.579684   -1.322703   -1.485389
H      -0.950758   -0.875013   -2.038781
H      -1.486311   -3.496040   -0.759312
H       0.074523   -2.640025   -0.603892
H      -2.410001   -2.125192    1.122649
H      -1.618503   -3.541086    2.887911
H      -0.274350   -4.091064    1.852800
H       0.070772   -3.298446    3.411381
