18

C      -0.391967    1.444685    0.042821
C       0.067810   -0.011411   -0.037322
N       0.718168   -0.320983   -1.326616
C       1.234859   -1.738160   -1.225462
C       2.452148   -1.185451   -0.470230
C       2.164937    0.117249   -1.230192
O       2.117826   -1.006664    0.920265
C       0.935649   -0.384358    1.188927
O       0.614334   -0.170270    2.324229
H       0.448138    2.138959   -0.056883
H      -1.101680    1.649405   -0.761869
H      -0.867934    1.627450    1.007981
H      -0.821451   -0.650681    0.033263
H       0.586733   -2.443661   -0.698753
H       1.478179   -2.121905   -2.219672
H       3.427217   -1.675186   -0.490724
H       2.611101    0.148728   -2.227143
H       2.351052    1.058743   -0.708516
