20

C      -0.004808    1.565753    0.038469
C       1.287737    0.767608   -0.017657
C      -0.033100    0.073608    0.010651
C      -0.538184   -0.959932    1.016466
C      -2.070208   -0.839066    0.826733
C      -2.032097   -1.349709   -0.630827
C      -1.432990   -2.746979   -0.395785
N      -0.152558   -2.055776   -0.016351
C      -0.542181   -0.933866   -0.991008
H      -0.251125    2.068570    0.968835
H      -0.310366    2.106715   -0.851573
H       1.851031    0.769811   -0.945387
H       1.903052    0.735691    0.875596
H      -0.123991   -1.064348    2.018622
H      -2.663560   -1.485797    1.479090
H      -2.415921    0.191333    0.939105
H      -2.890791   -1.158538   -1.275891
H      -1.884047   -3.392698    0.365326
H      -1.252262   -3.321622   -1.309025
H      -0.204748   -1.006187   -2.026091
