12

O      -0.011407   -0.050645   -0.002747
C       0.012843    1.153568    0.006039
C       1.249862    1.963258   -0.000732
N       2.466859    1.402144   -0.018167
N       3.271799    2.446583   -0.018513
N       2.724332    3.646088   -0.002878
C       1.411849    3.375009    0.008950
C       0.390357    4.443667    0.028617
O       0.639496    5.622087    0.035681
H      -0.922036    1.752136    0.020294
H       4.275643    2.331482   -0.030273
H      -0.655828    4.072271    0.035628
