17

C      -0.023625    1.490026   -0.005956
C       1.478332    1.925853    0.082577
C       2.234042    0.627068   -0.019379
C       3.493989    0.172224   -0.119008
C       3.457712   -1.330519   -0.101893
O       2.909883   -1.897751    1.110244
C       2.035379   -1.750167   -0.024153
C       1.267798   -0.476456   -0.002846
C       0.009008   -0.026655   -0.009683
H      -0.612540    1.879957    0.832929
H      -0.506038    1.873983   -0.914398
H       1.750600    2.629719   -0.709660
H       1.682218    2.430828    1.032836
H       4.407995    0.749407   -0.166009
H       4.229580   -1.932292   -0.573075
H       1.643826   -2.673663   -0.439441
H      -0.893498   -0.627035   -0.023333
