17

C       0.021433    1.428277    0.044340
N      -0.019263   -0.027069    0.026330
C      -1.226629   -0.661189   -0.022445
N      -2.365773   -0.075970    0.100880
C      -3.377551   -1.135269    0.049374
C      -2.594659   -2.495228    0.072406
N      -1.228411   -2.047151   -0.229075
C      -4.340912   -1.036005    1.155108
N      -5.102376   -0.987594    2.022826
H       1.044082    1.749559    0.253880
H      -0.312655    1.874036   -0.901232
H      -0.636623    1.789750    0.835824
H       0.717690   -0.483842   -0.488805
H      -3.952256   -1.047843   -0.882847
H      -2.660294   -2.972795    1.055992
H      -2.964770   -3.195182   -0.680181
H      -0.492165   -2.550530    0.248844
