18

C       0.058112    1.520749    0.106797
C       0.007756    0.027013   -0.033544
C       0.653363   -0.766861   -1.199736
C       0.720281   -1.799561   -0.063104
O       0.892386   -0.717840    0.883513
C      -0.776208   -2.175634    0.190614
C      -1.335990   -0.708537    0.193319
C      -1.354160   -3.052871   -0.816677
N      -1.795320   -3.746252   -1.630385
H       1.077731    1.889630   -0.030938
H      -0.587293    1.993037   -0.640792
H      -0.289470    1.826118    1.099037
H       0.066471   -0.987127   -2.094417
H       1.641827   -0.380786   -1.449412
H       1.460769   -2.594675    0.005481
H      -0.875771   -2.645392    1.171688
H      -1.779416   -0.447293    1.155752
H      -2.066113   -0.528186   -0.598135
