15

O      -0.771196    0.824121   -0.449376
C       0.138813    0.987473    0.324501
C       1.321036    1.854448    0.044370
C       1.498256    3.198041    0.814203
O       1.776594    3.904152   -0.409777
C       1.563645    2.727447   -1.217328
C       2.882336    1.981936   -1.532168
C       2.708306    1.194809   -0.219655
O       3.352322    0.386782    0.375726
H       0.158260    0.481696    1.314674
H       0.573548    3.554149    1.284374
H       2.319443    3.247254    1.537384
H       0.832790    2.873308   -2.011641
H       2.797738    1.309921   -2.394429
H       3.784330    2.589522   -1.631140
