16

O       0.140108    1.444449    0.007818
C       0.068717    0.020297   -0.021728
C       0.616179   -0.666774    1.298689
N      -0.505886   -1.412092    1.952272
C      -1.559323   -1.219239    1.074591
C      -1.319988   -0.534462   -0.070592
C      -2.549445   -0.597553   -0.811391
C      -3.410943   -1.309679   -0.035999
O      -2.801941   -1.714404    1.147481
H      -0.612150    1.752748    0.525469
H       0.702948   -0.261538   -0.867281
H       1.415016   -1.374663    1.060447
H       1.023210    0.100425    1.962251
H      -0.686724   -1.147971    2.914114
H      -2.777233   -0.174708   -1.777679
H      -4.438481   -1.611574   -0.142342
