17

C      -0.002182    1.365177   -0.014453
O      -0.024036   -0.062636   -0.005443
C      -1.251782   -0.600042   -0.006020
N      -2.400377    0.015960   -0.024894
C      -3.363619   -0.995532    0.005992
C      -4.825271   -0.699084    0.006921
C      -2.745218   -2.209628    0.027755
O      -3.194700   -3.493402    0.112066
N      -1.373658   -1.954494    0.016969
H       1.051704    1.645468   -0.009596
H      -0.498028    1.754990   -0.908323
H      -0.509483    1.766298    0.867902
H      -5.141230   -0.208019   -0.921182
H      -5.403768   -1.620308    0.121816
H      -5.088855   -0.027351    0.831057
H      -3.604017   -3.744328   -0.722941
H      -0.634624   -2.633980    0.073655
