15

O       0.051797    1.425318   -0.006461
C      -0.020231    0.058123    0.049000
C       0.289540   -0.844632    1.290325
N      -0.448222   -1.927726    0.527910
C      -1.319878   -0.812719   -0.015869
C       0.482061   -2.142390   -0.623482
C       0.803323   -0.686875   -0.983863
O       1.496714   -0.176664   -1.825745
H       0.652261    1.637119   -0.740532
H       1.327189   -1.074206    1.547482
H      -0.273539   -0.553534    2.179105
H      -2.066765   -0.517981    0.723736
H      -1.790196   -1.012400   -0.982552
H       1.366740   -2.707617   -0.317417
H      -0.012637   -2.680338   -1.436931
