19

O       0.013272    1.272802   -0.553805
C       0.057219    0.110371    0.256853
C      -1.306210   -0.526333    0.361666
O      -1.769179   -1.158784   -0.846774
C      -1.543107   -1.974126    0.314332
C      -0.447410   -3.044983    0.207416
C      -1.190457   -4.320384    0.520309
C      -2.445323   -4.097560    0.908355
C      -2.786681   -2.629112    0.931725
H      -0.357248    1.000531   -1.401316
H       0.783664   -0.620484   -0.126601
H       0.397532    0.436896    1.245868
H      -2.060463    0.101827    0.840699
H      -0.005301   -3.037253   -0.795062
H       0.373077   -2.872497    0.917241
H      -0.723161   -5.295195    0.440454
H      -3.157515   -4.863619    1.192830
H      -2.972033   -2.271392    1.953782
H      -3.675124   -2.376555    0.341724
