15

O       0.234125    1.315037    0.149151
C       0.109255   -0.015741    0.014599
N      -0.003501   -0.688084   -1.097432
C      -0.105088   -2.011006   -0.694148
C      -0.053416   -2.115192    0.667124
N       0.092564   -0.802785    1.120631
C      -0.116267   -3.271102    1.577266
C      -1.287621   -4.171106    1.639862
O      -0.096957   -4.551203    0.950938
H       0.225867    1.677062   -0.745994
H      -0.191755   -2.814913   -1.407068
H       0.152148   -0.484522    2.072936
H       0.502839   -3.200614    2.475186
H      -1.496648   -4.728426    2.552694
H      -2.144685   -3.955428    1.004835
