16

O       0.010142   -0.005111    0.195402
C      -0.007324    1.171708    0.072287
C      -1.087438    2.333521   -0.056939
C      -0.703838    3.052200    1.224640
C       0.643708    3.073104    1.211582
C       1.029087    2.369230   -0.074967
C      -0.046368    2.911868   -1.049048
C      -0.094364    2.898023   -2.521707
N      -0.023924    4.169142   -1.750958
H      -2.131141    2.160915   -0.309311
H      -1.385899    3.358573    2.004204
H       1.329802    3.409613    1.974827
H       2.072468    2.235936   -0.346539
H       0.795303    2.673885   -3.103560
H      -1.032418    2.629349   -3.001487
H      -0.932941    4.623573   -1.718548
