13

C      -0.025956    1.545442    0.021339
C      -0.034724    0.049009    0.023506
C      -1.141882   -0.722610   -0.100945
O      -2.370828   -0.211440   -0.241978
N      -1.111331   -2.111122   -0.094527
N      -0.053044   -2.753094    0.027356
O       1.141618   -2.055236    0.161933
C       1.224603   -0.648965    0.168409
O       2.313272   -0.160588    0.291361
H       0.607502    1.919176   -0.789771
H      -1.032935    1.946268   -0.094437
H       0.408604    1.922876    0.952763
H      -2.989340   -0.952245   -0.310871
