21

C      -0.485030    1.389438    0.122189
C       0.267721    0.073279   -0.114929
C       0.928116   -0.471237    1.138105
C       2.126305    0.290460    1.683031
C       2.662449   -0.291172    3.005941
C       2.796797   -1.790523    2.957375
C       1.968629   -2.540390    2.228541
C       0.879901   -1.918482    1.435748
O       0.017380   -0.974691    2.122833
H       0.189508    2.201512    0.411090
H      -1.009269    1.704424   -0.784854
H      -1.225760    1.265207    0.917688
H      -0.434815   -0.679508   -0.488734
H       1.030975    0.208953   -0.891917
H       2.913640    0.255216    0.918288
H       1.873389    1.346511    1.824373
H       3.625528    0.172390    3.244595
H       1.978853   -0.018978    3.819581
H       3.579011   -2.255477    3.550932
H       2.063976   -3.621361    2.195499
H       0.339951   -2.568047    0.748658
