18

N       0.875025    0.051498    0.752539
C       0.136521   -0.006641   -0.394206
O       0.459061    0.565440   -1.419355
C      -1.195167   -0.765562   -0.267698
C      -1.894299   -0.944222   -1.639786
C      -1.375181   -2.406542   -1.708300
C      -1.141254   -2.333009   -0.173625
C      -0.031889   -3.118874    0.461166
O       0.658591   -2.756986    1.386028
H       1.795135    0.454405    0.652258
H       0.778207   -0.702847    1.420303
H      -1.776199   -0.287548    0.525178
H      -2.982439   -0.898761   -1.553119
H      -1.548308   -0.261481   -2.414119
H      -2.052393   -3.179277   -2.076830
H      -0.430781   -2.468055   -2.256764
H      -2.052640   -2.678535    0.337189
H       0.102167   -4.137193    0.030154
