19

C      -0.248488    1.753401    0.185782
C       0.040921    0.260802    0.071401
C      -1.243033   -0.551539   -0.213254
C      -1.867336   -0.227039   -1.490558
C      -2.356987    0.048036   -2.553649
C       1.206413   -0.131943   -0.901223
C       1.847154   -0.917975    0.249959
O       2.750345   -1.699354    0.321838
C       0.839965   -0.362393    1.268866
H       0.670393    2.316373    0.379658
H      -0.695475    2.138247   -0.735840
H      -0.944888    1.957081    1.007392
H      -1.005731   -1.623743   -0.193822
H      -1.959289   -0.384361    0.602104
H      -2.801768    0.283227   -3.488797
H       0.942608   -0.704723   -1.794398
H       1.825900    0.717197   -1.209456
H       1.296768    0.386322    1.924948
H       0.327884   -1.100921    1.892956
