13

O       0.100688    1.334852    0.189600
C       0.071603   -0.006968   -0.000723
C       0.092926   -0.806885   -1.112286
C       0.037889   -2.167176   -0.637511
C      -0.013754   -2.120122    0.740563
N       0.007398   -0.795738    1.114333
C       0.037102   -3.334047   -1.435656
C       0.037396   -4.317311   -2.132630
H       0.142449    1.763444   -0.670514
H       0.141142   -0.491327   -2.141993
H      -0.063036   -2.911689    1.468294
H      -0.019029   -0.440387    2.054287
H       0.037328   -5.187297   -2.740488
