14

O       0.177408    1.412410   -0.206587
C       0.077132    0.019004   -0.017975
C       0.648607   -0.537282    1.263881
C      -0.267657   -1.281143    1.884611
N      -1.491941   -1.300761    1.175376
C      -2.642194   -1.958700    1.589032
O      -2.700300   -2.619078    2.596753
C      -1.391014   -0.492577    0.019320
O      -2.287236   -0.254692   -0.742890
H      -0.209339    1.849588    0.560748
H       0.558589   -0.425524   -0.898468
H       1.661774   -0.367648    1.596209
H      -0.216767   -1.847356    2.802432
H      -3.472120   -1.801030    0.883781
