19

C       0.001668    1.535917    0.075550
C      -0.017808    0.036453    0.077014
C       1.151218   -0.838572   -0.331119
C       0.594726   -0.966466    1.062371
O       1.330271   -0.664590    2.195539
C      -0.659719   -1.829617    1.047659
C      -1.769980   -1.315529    1.982041
O      -2.262681   -0.384634    0.989650
C      -1.281587   -0.814478    0.027193
H       0.943057    1.914889    0.485346
H      -0.112437    1.940419   -0.936920
H      -0.818417    1.919426    0.689920
H       1.040564   -1.635590   -1.064487
H       2.097565   -0.308628   -0.383467
H       2.049757   -1.300551    2.274494
H      -0.571274   -2.907423    0.898250
H      -2.533868   -2.061634    2.232051
H      -1.433096   -0.818440    2.898650
H      -1.725671   -1.069429   -0.940013
