12

O      -0.037920   -0.041241   -0.049471
C      -0.064547    1.151604   -0.009327
N      -1.112448    1.983190    0.323129
C      -0.847667    3.357028   -0.046846
C       0.704644    3.313487   -0.065774
O       1.034432    1.940853   -0.286325
C       1.295083    4.155293   -1.107476
N       1.741782    4.852639   -1.911783
H      -2.039594    1.591346    0.283847
H      -1.249526    3.622507   -1.032449
H      -1.216454    4.072349    0.691708
H       1.110215    3.619548    0.906012
