15

C      -0.240351    1.525629    0.013766
C       0.163170    0.058973    0.001271
O       1.303937   -0.327107   -0.016954
N      -0.938566   -0.798107    0.012096
C      -0.927908   -2.176892    0.002950
N       0.050784   -3.020399   -0.005508
C      -0.589284   -4.259077   -0.011023
C      -1.926815   -4.085336   -0.005035
O      -2.169058   -2.727082    0.003984
H       0.665137    2.130699    0.008751
H      -0.845582    1.774034   -0.864662
H      -0.829540    1.764010    0.905724
H      -1.860137   -0.389491    0.023942
H      -0.026277   -5.178707   -0.018702
H      -2.791975   -4.723656   -0.005486
