18

C       0.276719    1.447787    0.007728
C       0.115177   -0.036808   -0.042611
C       0.019449   -0.909033   -1.111209
C       0.057987   -0.553141   -2.580263
C       1.294598    0.098177   -3.015315
C       2.305290    0.642788   -3.372840
C      -0.150683   -2.220528   -0.579705
C      -0.155325   -2.118615    0.789770
N       0.005308   -0.791791    1.101312
H       0.951564    1.751226    0.816833
H       0.705855    1.811723   -0.928364
H      -0.677000    1.968828    0.165381
H      -0.082714   -1.469485   -3.165965
H      -0.788876    0.095502   -2.844909
H       3.203210    1.112752   -3.688695
H      -0.251240   -3.131772   -1.150429
H      -0.251599   -2.865658    1.560731
H       0.050805   -0.418662    2.033726
