20

C       0.030085    1.533028   -0.069669
C       0.012985    0.008964    0.017689
O       0.652949   -0.568984   -1.133708
C       0.746352   -0.525217    1.249126
C       0.711904   -2.052670    1.371113
O       1.518353   -2.687918    0.386638
C       1.253730   -2.546284    2.711770
O       1.282374   -3.956832    2.758343
H       1.059433    1.902489   -0.106566
H      -0.489790    1.878850   -0.970491
H      -0.471370    1.979316    0.794958
H      -1.031725   -0.339412    0.059371
H       0.145834   -0.333962   -1.916897
H       1.791404   -0.192842    1.219226
H       0.283162   -0.079879    2.138131
H      -0.333794   -2.397527    1.281077
H       1.321958   -2.256038   -0.456150
H       2.258246   -2.116805    2.866715
H       0.609904   -2.205169    3.529869
H       1.662126   -4.229537    1.913455
