15

O       0.009031    1.465868   -0.083241
C      -0.004003    0.102194    0.027494
C      -0.194530   -0.758618   -1.195166
C      -1.156634   -0.921264   -0.031359
N      -0.488793   -1.636749    1.072796
C      -0.091935   -2.812151    1.636195
N       1.114309   -2.682833    2.159923
C       1.575061   -1.425573    1.810683
C       0.576983   -0.760087    1.143642
H      -0.244489    1.840692    0.768739
H      -0.615878   -0.229559   -2.046811
H       0.507803   -1.549124   -1.441494
H      -2.229730   -0.801060   -0.073298
H      -0.721792   -3.684504    1.720805
H       2.558175   -1.092549    2.103767
