15

C      -0.067094    1.548050   -0.002568
C       0.059466    0.032184   -0.057787
C      -1.033631   -0.636391    0.630505
N      -1.928904   -1.131206    1.167738
C       0.588449   -0.740755   -1.239133
N       1.318632   -0.726577    0.100192
C       2.421168    0.105244   -0.504632
C       1.723320    0.025678   -1.877342
O       2.035014    0.272692   -3.002476
H       0.658964    2.055062   -0.637708
H      -1.064956    1.836708   -0.342401
H       0.053796    1.898324    1.026715
H       0.072771   -1.608852   -1.633694
H       2.600274    1.075012   -0.037376
H       3.347506   -0.475438   -0.506912
