20

C      -0.012884    1.551682    0.116058
C       1.525165    1.570381   -0.111716
C       1.434578    0.099355   -0.614095
C       2.426676   -0.941345   -0.143706
N       2.866578   -0.858313    1.265172
C       1.969636   -1.945890    0.854479
C       0.547092   -1.854184    1.374051
O       0.035301   -0.537965    1.327326
C       0.013931    0.011675    0.023779
H      -0.388992    1.948821    1.060757
H      -0.571281    1.999462   -0.710458
H       1.922099    2.311593   -0.808936
H       2.078030    1.619942    0.827571
H       1.355939    0.057042   -1.704974
H       3.169369   -1.261830   -0.870890
H       3.819239   -1.202526    1.348360
H       2.367575   -2.957254    0.793155
H      -0.089980   -2.545733    0.794047
H       0.502887   -2.156549    2.425664
H      -0.764698   -0.482566   -0.577600
