18

C      -0.669613    1.281759   -0.092663
C      -0.016794   -0.091728   -0.052670
C       1.280473   -0.354451   -0.862699
O       2.011979    0.853945   -0.980891
C       1.776875   -1.255912    0.299173
C       0.715843   -0.606752    1.245002
C       1.283483    0.485445    2.115750
O       0.989602    0.648209    3.274370
H       0.057214    2.078291    0.078676
H      -1.132398    1.459997   -1.068938
H      -1.452382    1.357984    0.669111
H      -0.748115   -0.858264   -0.329200
H       1.157529   -0.830784   -1.844351
H       2.892297    0.640289   -1.306555
H       1.568499   -2.315131    0.130506
H       2.829137   -1.141902    0.576498
H       0.136085   -1.280210    1.878931
H       2.015679    1.150104    1.608116
