16

C      -0.240935    1.476450    0.088064
C      -0.069019   -0.009363    0.026469
C       0.017887   -0.789854   -1.082478
O       0.166938   -2.102701   -0.752581
C       0.172910   -2.165108    0.600150
C       0.035068   -0.925028    1.138389
C       0.016251   -0.586285    2.604317
C      -1.250423    0.012894    3.040756
N      -2.246212    0.495152    3.373785
H       0.596879    1.959030    0.605487
H      -0.299546    1.905288   -0.915656
H      -1.153484    1.752197    0.627317
H      -0.009936   -0.571766   -2.137602
H       0.282309   -3.147397    1.030766
H       0.194744   -1.486267    3.202139
H       0.820607    0.117127    2.855376
