18

C      -0.133114    1.572466    0.013057
C       0.027978    0.047992   -0.011084
C       0.848176   -0.478642   -1.234255
C       2.169834   -0.915731   -0.616159
O       2.777466    0.265417    0.016594
C       2.283384   -0.189145    1.277956
C       1.836697   -1.521132    0.768105
C       0.800123   -0.500997    1.195405
H       0.845886    2.057797   -0.016562
H      -0.715956    1.921362   -0.846332
H      -0.652815    1.899137    0.920505
H      -0.968714   -0.407842   -0.019281
H       0.354505   -1.333853   -1.710564
H       1.000749    0.291536   -1.996367
H       2.880946   -1.425712   -1.268381
H       2.812222    0.118720    2.172483
H       1.969169   -2.533235    1.123112
H       0.288633   -0.645373    2.141661
