21

O       0.398743    0.406485   -1.243956
C       0.068552    0.040319    0.076418
C       1.137811   -0.536610    0.965718
C       0.601568    0.860840    1.225065
C      -1.309954   -0.581432    0.084973
C      -2.365698   -0.246523    1.187725
C      -2.567505    1.142586    0.507855
C      -2.501354    0.109993   -0.653014
C      -3.438745   -0.791853    0.200893
H       1.345081    0.573727   -1.292867
H       0.867046   -1.329529    1.655964
H       2.141581   -0.630692    0.560482
H       1.243737    1.701511    0.980045
H      -0.019782    1.016826    2.099850
H      -1.228198   -1.650158   -0.145410
H      -2.291098   -0.458611    2.256475
H      -3.537396    1.620263    0.673526
H      -1.754199    1.864233    0.578442
H      -2.567695    0.310639   -1.721800
H      -3.417468   -1.865524   -0.006921
H      -4.459893   -0.430441    0.347859
