17

C       0.056473    1.549688   -0.031435
C      -0.021216    0.058667   -0.001802
C       0.435005   -1.028218   -0.968563
C       0.916229   -1.004918    0.490980
N      -0.117218   -1.802648    1.219354
C      -0.426296   -2.952327    0.287390
C      -0.823776   -1.904587   -0.769344
C      -1.126542   -0.941841    0.428847
H       1.042889    1.879152   -0.375640
H      -0.690200    1.978253   -0.709825
H      -0.108250    1.977449    0.964116
H       1.100154   -0.955730   -1.818672
H       1.952834   -0.953215    0.799420
H       0.409132   -3.629788    0.085472
H      -1.280036   -3.512927    0.680729
H      -1.488117   -2.089474   -1.612938
H      -2.100565   -0.739600    0.871824
