16

O      -0.025335    0.055778    0.156305
C      -0.056175    1.253291    0.044768
C      -1.275563    2.114663   -0.116898
C      -1.383774    3.235982    0.865646
N      -0.869802    3.494664   -0.475942
C       0.615537    3.526995   -0.602339
C       1.395892    4.127964    0.574906
O       1.618791    2.806786    1.136566
C       1.166931    2.185282   -0.097744
H      -2.154367    1.686867   -0.586931
H      -2.365624    3.657015    1.061119
H      -0.707298    3.221625    1.714628
H       0.867261    3.866468   -1.606967
H       2.343073    4.596610    0.282869
H       0.852380    4.790419    1.255588
H       1.982357    1.692459   -0.636055
