14

N       0.020530    1.341340    0.113696
C      -0.001479   -0.020109    0.033342
N      -1.072216   -0.742066    0.011393
C      -0.710222   -2.173487   -0.004116
C       0.794424   -2.192459   -0.010076
C       1.963033   -2.872001   -0.033014
O       3.001036   -1.995404   -0.022553
N       2.515376   -0.683569    0.010255
C       1.218961   -0.843364    0.017159
H       0.856152    1.810918   -0.194280
H      -0.849871    1.811022   -0.081948
H      -1.140702   -2.673627    0.871987
H      -1.149286   -2.653739   -0.886774
H       2.249306   -3.911635   -0.057438
