19

C      -0.085338    1.532917   -0.093535
C       0.023815    0.033685    0.045732
C       1.347166   -0.691279   -0.136689
O       2.487501    0.095582   -0.345251
C       3.390749    0.153829    0.749045
C       2.713576    0.427231    2.070488
C       1.440583    0.089759    2.269998
C       0.689627   -0.646034    1.221022
O       0.002159   -1.786182    1.674353
H       0.815984    2.031614    0.267179
H      -0.222494    1.811657   -1.143502
H      -0.941069    1.917055    0.471458
H      -0.831390   -0.532633   -0.314393
H       1.348790   -1.637125   -0.676113
H       3.983647   -0.776174    0.818051
H       4.093167    0.957880    0.505988
H       3.305697    0.908056    2.844058
H       0.929403    0.286222    3.208593
H       0.652393   -2.384166    2.061625
