20

C      -0.059158    1.538530    0.086900
C       1.463636    1.267808    0.060692
C       1.182217    0.064275    1.034705
C       0.095837   -0.012735   -0.079117
C      -0.926802   -0.913182   -0.728179
C      -0.891877   -0.390415   -2.211535
C       0.453407    0.413174   -2.433278
C       1.212086    0.251217   -1.107551
H      -0.479657    1.879436    1.037401
H      -0.483809    2.100764   -0.746305
H       2.267480    1.999844    0.159227
H       1.925581   -0.738267    1.049294
H       0.854005    0.327470    2.044174
H      -0.603027   -1.959193   -0.679328
H      -1.931322   -0.856502   -0.298502
H      -0.980936   -1.221028   -2.917096
H      -1.749463    0.263323   -2.395189
H       1.026114    0.003510   -3.269216
H       0.236444    1.453542   -2.688207
H       1.967048   -0.541024   -1.166831
