23

C      -0.157540    1.517913   -0.100814
C      -0.158571   -0.007245   -0.241361
C       0.896760   -0.563300   -1.216229
C       2.338972   -0.240679   -0.790406
C       0.721102   -2.067158   -1.385128
O       0.893025   -2.832491   -0.216303
C      -0.350326   -2.608043   -2.295743
C       1.113616   -2.739352   -2.673405
O       1.651784   -1.945195   -3.691376
H       0.772016    1.890903    0.340235
H      -0.281743    2.007369   -1.073932
H      -0.978629    1.849366    0.542897
H      -0.012709   -0.475006    0.739524
H      -1.147921   -0.333789   -0.585037
H       0.736154   -0.114523   -2.203276
H       3.054401   -0.665531   -1.501125
H       2.513348    0.837579   -0.750347
H       2.559432   -0.639340    0.207741
H       1.827811   -2.807025    0.016449
H      -0.876000   -3.501188   -1.978110
H      -0.941626   -1.885626   -2.849064
H       1.554007   -3.731752   -2.574029
H       1.278296   -2.239049   -4.528880
