19

C      -0.003264    1.413219   -0.147907
O       0.960823    1.946867    0.761805
C       2.041992    1.024874    0.872581
C       1.417958   -0.334623    0.667448
C       2.126893   -1.651837    0.462248
O       1.106328   -2.640491    0.573054
C       0.110498   -2.169057    1.482936
C       0.116049   -0.655042    1.367474
C       0.098289   -0.097397   -0.032457
H      -0.975104    1.828947    0.138649
H       0.213065    1.723191   -1.183075
H       2.813305    1.216491    0.107076
H       2.495072    1.172907    1.858999
H       2.588397   -1.770842   -0.524193
H       2.908830   -1.794201    1.227719
H      -0.833069   -2.645582    1.196548
H       0.346232   -2.464674    2.518068
H      -0.246130   -0.055162    2.195793
H      -0.225197   -0.719029   -0.860751
