17

N      -0.000068    1.431172    0.149445
C      -0.006644    0.026605    0.041793
C      -1.099689   -0.808827    0.023669
C      -2.602589   -0.850748    0.035829
C      -2.859911   -2.351726   -0.007350
C      -1.697031   -3.016426   -0.030314
N      -0.627579   -2.115911   -0.009129
C       0.737559   -2.131086   -0.012292
C       1.154079   -0.815228    0.019495
H       0.818994    1.839887   -0.282736
H      -0.823927    1.854666   -0.259263
H      -3.041781   -0.392433    0.933815
H      -3.062370   -0.338533   -0.822601
H      -3.841809   -2.800470   -0.015774
H      -1.507661   -4.079667   -0.060150
H       1.297965   -3.051282   -0.039298
H       2.180244   -0.477952    0.031596
