17

C       0.311764    1.526830   -0.287080
O       1.640437    1.344873    0.276938
C       1.329679    0.005250    0.696892
C      -0.068179    0.078994    0.057474
O       0.313350   -0.867754   -0.959208
C       1.626129   -1.042817   -0.388069
C       2.875813   -0.960857   -1.270654
O       3.367398   -2.209925   -0.730800
C       2.114103   -2.464562   -0.064849
H      -0.244738    2.295618    0.262665
H       0.330099    1.763672   -1.355619
H       1.596192   -0.199796    1.735198
H      -1.033444   -0.143960    0.512450
H       2.649273   -1.030356   -2.342383
H       3.551009   -0.119988   -1.083727
H       2.246230   -2.726436    0.991976
H       1.518621   -3.238761   -0.566573
