15

C      -0.056733    1.510670    0.087242
C       0.027427   -0.007385   -0.042843
C       0.747018   -0.457693   -1.298837
O       1.210089    0.309518   -2.118305
C       0.878458   -1.915361   -1.514000
C       1.474832   -2.577126   -2.551655
O       1.377570   -3.874327   -2.368659
N       0.653002   -4.040556   -1.097127
N       0.402071   -2.898446   -0.669061
H       0.940290    1.957722    0.110580
H      -0.588763    1.947699   -0.761531
H      -0.582129    1.786664    1.005198
H       0.539077   -0.460894    0.816648
H      -0.968234   -0.470857   -0.043173
H       1.977053   -2.217348   -3.435173
