19

C       0.346051    1.451814   -0.467141
C       0.015083    0.053558   -0.015081
O       1.093667   -0.880198    0.122602
C       0.372989   -0.511161    1.303034
C       1.122222    0.212608    2.361482
C       2.517249    0.785433    2.209609
C       2.256165   -0.242086    3.263305
O       1.676322    0.349551    4.428360
C       0.509761    0.742480    3.659457
H       1.183852    1.869806    0.092016
H       0.603371    1.454301   -1.531575
H      -0.524131    2.103972   -0.334127
H      -0.862695   -0.382160   -0.497970
H      -0.276082   -1.303719    1.684981
H       3.032764    0.422542    1.326543
H       2.736869    1.808965    2.503210
H       2.773883   -1.188070    3.372058
H       0.305296    1.817939    3.723963
H      -0.372451    0.178594    3.986471
