18

C      -0.277514    1.504523    0.123905
C      -0.034540    0.001333    0.027451
C       1.123223   -0.456588   -0.950168
N       1.759392   -1.091936    0.213082
C       2.863546   -1.575515    0.845288
C       2.584160   -1.496822    2.203518
C       1.300231   -0.894040    2.379521
O       0.752372   -0.655266    3.609896
C       0.815681   -0.658611    1.109543
H       0.657307    2.043317    0.307570
H      -0.725615    1.890795   -0.798158
H      -0.963375    1.735994    0.945721
H      -0.977959   -0.515654   -0.183388
H       0.847005   -1.153671   -1.746913
H       1.700768    0.373678   -1.369383
H       3.719187   -1.974364    0.324997
H       3.212729   -1.856691    3.003886
H      -0.134090   -0.303997    3.489187
