15

C       0.072974    1.429105    0.043619
N      -0.004073   -0.020710   -0.010391
C      -1.171931   -0.712602   -0.146327
C      -1.207884   -2.066506   -0.157231
C       0.010559   -2.834342   -0.017833
N       0.054603   -4.120972   -0.019799
C       1.166963   -1.938385    0.123005
F       2.349261   -2.528866    0.259212
N       1.181533   -0.656789    0.130960
H       0.784723    1.792680   -0.701922
H      -0.913127    1.844487   -0.167709
H       0.399585    1.762590    1.033650
H      -2.060073   -0.101102   -0.247297
H      -2.146096   -2.592765   -0.272053
H       1.019591   -4.434617    0.091725
