16

N       0.057273    1.290897    0.001932
C       0.097052   -0.056464   -0.020172
O       1.114464   -0.725287   -0.126773
C      -1.260248   -0.788354    0.052805
O      -1.019425   -2.165300    0.065494
C      -2.074301   -0.394969    1.316570
O      -2.409768    0.970880    1.313718
C      -3.343852   -1.225597    1.373330
O      -4.426479   -0.686827    1.380134
H       0.931475    1.790573    0.039900
H      -0.796165    1.746856    0.294190
H      -1.854493   -0.493721   -0.827098
H      -0.049760   -2.237540   -0.024448
H      -1.465463   -0.646778    2.199432
H      -3.382971    0.994792    1.295151
H      -3.220633   -2.320556    1.392445
