21

C      -0.033017    1.373534   -0.115958
C       1.355086    2.028080    0.015957
C       2.275882    1.331112    1.037287
C       2.263580   -0.175092    0.764308
C       0.813886   -0.633406    0.942231
C       0.374418   -0.338696    2.390251
C       0.695441    1.093762    2.856778
O       1.952201    1.583901    2.404570
O      -0.012068   -0.048115   -0.064427
H      -0.717273    1.770090    0.645534
H      -0.471299    1.620396   -1.088442
H       1.866647    1.983159   -0.953175
H       1.239389    3.086132    0.273682
H       3.285336    1.740133    0.931116
H       2.602784   -0.389862   -0.253915
H       2.924683   -0.689572    1.468733
H       0.718098   -1.708506    0.761811
H      -0.697556   -0.530957    2.505101
H       0.903866   -1.052589    3.032882
H      -0.107766    1.781602    2.561707
H       0.749259    1.127200    3.949820
