16

N      -0.058480    1.369888    0.328777
C       0.191410    0.032297    0.063453
O       1.293362   -0.436093   -0.050481
N      -1.008069   -0.713691    0.017530
C      -1.150795   -2.035629   -0.386966
O      -0.271238   -2.708618   -0.872530
C      -2.539466   -2.577494   -0.184548
C      -3.116115   -3.347968   -1.329994
N      -2.661150   -4.038140   -0.129721
H       0.766243    1.944949    0.242866
H      -0.899056    1.788509   -0.039939
H      -1.831146   -0.270827    0.396669
H      -3.203733   -2.032021    0.481832
H      -4.191243   -3.334658   -1.483707
H      -2.507803   -3.411936   -2.227579
H      -1.728013   -4.413165   -0.307149
