25

C       0.003493    1.650219   -0.004431
C      -0.011062    0.117842    0.009142
C       0.704752   -0.507751   -1.198043
C       2.224110   -0.198708   -1.257240
C       2.881975   -1.441825   -1.902106
C       1.847522   -2.515710   -1.681064
C       0.665906   -2.031619   -1.289810
C      -0.580052   -2.842780   -1.048398
C      -0.775151   -3.271503    0.418509
H       1.024729    2.043084    0.030801
H      -0.469017    2.040292   -0.913321
H      -0.538388    2.059002    0.854143
H       0.457908   -0.246538    0.932895
H      -1.052349   -0.226697    0.033977
H       0.211801   -0.109709   -2.102047
H       2.451471    0.728179   -1.789927
H       2.598107   -0.082349   -0.232752
H       3.063982   -1.294685   -2.976971
H       3.856742   -1.679198   -1.459949
H       2.043932   -3.565037   -1.880921
H      -1.460415   -2.274385   -1.376331
H      -0.546992   -3.743675   -1.671924
H       0.071713   -3.876143    0.757234
H      -0.855295   -2.409694    1.086438
H      -1.686240   -3.868707    0.529232
