23

C      -0.094083    1.621786   -0.031771
C      -0.085419    0.086405   -0.002029
C       0.519058   -0.441971   -1.315150
O       0.298530   -1.827152   -1.514689
C       1.427089   -2.670786   -1.458767
C       2.123747   -2.719307   -0.078166
C       1.138668   -2.891776    1.042058
C       0.466457   -1.883271    1.597136
C       0.643388   -0.419051    1.269146
H       0.926190    2.023730   -0.061773
H      -0.626567    2.002419   -0.909584
H      -0.581527    2.030041    0.858732
H      -1.122903   -0.270439    0.030996
H       0.038403    0.082970   -2.152278
H       1.591941   -0.199067   -1.361376
H       1.047579   -3.665271   -1.716723
H       2.168009   -2.388306   -2.224723
H       2.851653   -3.538600   -0.101445
H       2.699859   -1.797153    0.061127
H       0.915735   -3.910034    1.352781
H      -0.280565   -2.112734    2.354206
H       1.710632   -0.177045    1.166724
H       0.284615    0.172442    2.119296
