19

C      -0.188883    1.448086    0.046099
N       0.014850    0.003138   -0.035282
C       0.741965   -0.508799   -1.206364
C       2.215651   -0.054491   -1.300532
C       0.667337   -2.070565   -1.136983
N      -0.661205   -2.649973   -1.125741
C       0.026776   -0.080324   -2.424686
N      -0.514698    0.222106   -3.400041
H       0.735070    2.047318    0.060069
H      -0.793453    1.778527   -0.803310
H      -0.748240    1.668395    0.959391
H       0.503130   -0.323398    0.793205
H       2.762237   -0.419520   -0.424543
H       2.695280   -0.457110   -2.197216
H       2.299551    1.034046   -1.333287
H       1.237668   -2.487549   -1.972730
H       1.193684   -2.360022   -0.216788
H      -1.229502   -2.142986   -0.451866
H      -1.104097   -2.514480   -2.030251
