16

N       0.012426   -1.072174    0.050139
C      -0.010385    0.082651    0.005545
C       0.002694    1.524487   -0.076626
C       0.584754    2.148315   -1.323642
C       1.356758    2.224341   -0.011649
C       1.350362    3.490938    0.756249
C       0.208508    4.079573    1.110210
C      -1.125136    3.476256    0.770763
O      -1.085242    2.056623    0.612780
H       0.946010    1.479840   -2.096190
H       0.129772    3.064026   -1.682677
H       2.236555    1.597461    0.075512
H       2.309676    3.919731    1.027782
H       0.202470    5.013738    1.662192
H      -1.843976    3.645081    1.578271
H      -1.551513    3.940377   -0.134085
