17

O       0.143596    0.198662   -1.050223
C       0.067647    1.159701   -0.348378
C      -1.023542    1.802390    0.518770
N      -0.136324    2.986201    0.688551
C       0.236588    3.410230    2.046190
C       1.538272    2.694863    2.375230
N       1.422588    1.231570    2.243856
C       2.024448    2.015905    1.141854
C       1.028816    2.307995    0.034989
H      -1.971865    2.017103    0.013338
H      -1.212098    1.229941    1.435591
H       0.394110    4.496167    2.076497
H      -0.565736    3.168618    2.751394
H       2.226314    3.114514    3.103095
H       2.158338    0.773830    2.775309
H       3.078911    1.902013    0.916462
H       1.490308    2.854680   -0.795170
