22

C      -0.163490    1.551902    0.014408
C       0.060648    0.041298    0.016180
C       0.852680   -0.485440   -1.207887
C       1.617647   -1.748973   -0.723313
C       1.256522   -1.911175    0.774779
C       2.371793   -2.533964    1.633645
C       2.709964   -3.897397    1.226543
N       2.961471   -4.974897    0.892567
C       0.862347   -0.492982    1.215072
H       0.792637    2.088556    0.014543
H      -0.721223    1.868739   -0.873243
H      -0.729127    1.876007    0.894510
H      -0.920014   -0.454333    0.030341
H       0.193864   -0.694665   -2.055164
H       1.559965    0.280392   -1.545362
H       1.365617   -2.644669   -1.295826
H       2.698721   -1.606584   -0.832465
H       0.371566   -2.553978    0.858744
H       3.278301   -1.919045    1.572094
H       2.074890   -2.555230    2.688844
H       1.764921    0.118881    1.361014
H       0.299742   -0.474346    2.154255
