20

C       0.063129    1.535629    0.024151
C       0.058007    0.021190   -0.004057
C      -0.864053   -0.707620    0.964026
C       0.621375   -0.756374    1.178799
C       1.370128   -2.059657    0.918623
C       1.786027   -2.149036   -0.543511
O       0.689956   -1.864544   -1.426591
C       0.178884   -0.592325   -1.360381
N      -0.230991    0.008695   -2.397494
H       1.007247    1.934870   -0.360316
H      -0.740694    1.932191   -0.600070
H      -0.071059    1.900338    1.047360
H      -1.472057   -0.090022    1.615996
H      -1.348414   -1.614448    0.616800
H       1.009738   -0.140809    1.983990
H       2.267034   -2.117824    1.544261
H       0.745317   -2.921657    1.177579
H       2.604706   -1.447779   -0.755304
H       2.120777   -3.153472   -0.813427
H      -0.068553   -0.576654   -3.219449
