19

C       0.254399    0.518745   -1.446387
C       0.011379   -0.052576   -0.063901
C       1.167438   -0.508678    0.747769
N       0.443442    0.729227    1.106140
C      -1.338990   -0.725444    0.118863
C      -1.933764   -0.822964    1.484607
N      -2.492757    0.127503    0.515251
C      -1.632836   -1.759089   -0.845060
C      -1.842674   -2.635860   -1.640709
H       1.252804    0.962271   -1.514401
H       0.171494   -0.259955   -2.209225
H      -0.483785    1.293535   -1.682495
H       1.045186   -1.325111    1.453302
H       2.162308   -0.420562    0.319172
H       0.971293    1.542165    0.799263
H      -2.571468   -1.671693    1.710709
H      -1.342765   -0.428845    2.304793
H      -2.116775    1.049633    0.736224
H      -2.044446   -3.406354   -2.342951
