20

O      -0.000624    1.395421   -0.212987
C       0.019880   -0.019322   -0.005512
C       0.566910   -0.428153    1.385868
N      -0.559785   -0.572669    2.326363
C      -1.470621    0.587233    2.349014
C      -1.786380   -0.594672    1.502903
C      -1.417377   -0.524920    0.045176
C      -2.403864   -0.190062   -1.038524
C      -1.886706   -1.599580   -0.907849
H       0.908381    1.710775   -0.171799
H       0.588924   -0.499519   -0.813943
H       1.061709   -1.403781    1.315325
H       1.298985    0.292776    1.766727
H      -1.988001    0.722875    3.294902
H      -1.165277    1.498301    1.844783
H      -2.566392   -1.291402    1.800575
H      -3.428358    0.009805   -0.743058
H      -2.050406    0.419297   -1.862313
H      -1.186669   -1.962702   -1.653249
H      -2.556959   -2.359475   -0.518681
