14

N       0.088537    1.296097    0.236354
C       0.063619    0.059268   -0.008742
O       1.121764   -0.700036   -0.423295
C       0.692172   -1.996674   -0.880413
C      -0.753999   -2.125303   -0.452272
O      -0.925889   -1.949148    0.937438
C      -1.150276   -0.805090    0.086175
C      -2.544960   -0.256376    0.032594
O      -3.518543   -0.950195    0.167840
H       1.014695    1.689026    0.059648
H       0.790857   -2.047197   -1.970614
H       1.336020   -2.751705   -0.420816
H      -1.454637   -2.784065   -0.956240
H      -2.600327    0.833691   -0.148904
