21

C       0.060129    1.393971    0.005309
C       0.066153   -0.117235    0.031357
O       0.151326   -0.745297    1.066746
C      -0.033023   -0.883937   -1.291143
O       0.034768   -2.260858   -1.040165
C      -1.314930   -0.523146   -2.072533
C      -1.377899   -1.182501   -3.433351
C      -1.864930   -2.599183   -3.577269
C      -2.713645   -1.458941   -4.080954
H       0.627548    1.784485   -0.844329
H      -0.970347    1.752722   -0.100084
H       0.466212    1.777977    0.942108
H       0.835501   -0.568197   -1.899024
H       0.120526   -2.333621   -0.074749
H      -2.178843   -0.831123   -1.469991
H      -1.373401    0.566388   -2.191265
H      -0.577205   -0.882835   -4.106095
H      -1.376376   -3.238941   -4.303568
H      -2.172612   -3.110949   -2.673399
H      -3.608825   -1.204047   -3.522451
H      -2.806138   -1.314053   -5.151750
