17

C       0.225466    0.406627   -0.784350
C       0.007536   -0.125723    0.628433
O       0.219247    0.867893    1.622024
C      -1.386212   -0.721206    0.833711
O      -1.520927   -1.845355   -0.058342
C      -2.694730   -2.480857   -0.040569
N      -3.671140   -2.150721    0.697692
C      -2.701433   -3.592554   -0.977361
N      -2.772489   -4.488380   -1.703978
H       1.233280    0.818313   -0.881265
H       0.095111   -0.386455   -1.525163
H      -0.496100    1.201896   -1.013219
H       0.746046   -0.906855    0.841818
H      -0.279758    1.652785    1.369426
H      -1.515759   -1.056127    1.866292
H      -2.173225    0.009687    0.612367
H      -4.471187   -2.763131    0.557439
