20

C      -0.097536    1.548828   -0.053478
C       1.402285    1.304315    0.020466
C       1.163969    0.118201    0.988311
C       1.940667   -0.898145    0.133401
C       3.370242   -0.808322   -0.401792
C       3.146304   -0.790540   -1.964531
C       1.680855   -0.269175   -2.250132
C       1.215805    0.002588   -0.841635
N      -0.081592    0.024539    0.015390
H      -0.584107    2.016360    0.809207
H      -0.519431    1.937570   -0.986192
H       2.238611    2.011139    0.015071
H       0.982017    0.159782    2.064525
H       1.549435   -1.920135    0.184051
H       3.853878    0.120839   -0.084225
H       4.019504   -1.632374   -0.096535
H       3.896503   -0.170552   -2.462008
H       3.257640   -1.801125   -2.367431
H       1.668144    0.608318   -2.902251
H       1.076354   -1.048309   -2.724400
