23

C      -0.081131    1.567718   -0.095233
C       0.015461    0.062498   -0.069444
C      -0.013282   -0.639031   -1.208233
C      -0.009065   -2.140937   -1.308909
C      -0.357535   -2.793642    0.032955
C       0.425194   -2.123345    1.161961
C       0.096524   -0.623850    1.289187
C       1.107712    0.025142    2.246453
O       0.562994    1.229210    2.769868
H       0.792034    2.046996    0.358295
H      -0.184097    1.931245   -1.121550
H      -0.942416    1.916979    0.486139
H      -0.066055   -0.094133   -2.149550
H      -0.716859   -2.459290   -2.084899
H       0.976228   -2.492143   -1.652962
H      -1.433015   -2.682833    0.222523
H      -0.148928   -3.868660    0.005375
H       0.227866   -2.619225    2.119283
H       1.501334   -2.238937    0.967018
H      -0.881645   -0.516445    1.783760
H       1.322164   -0.684122    3.061646
H       2.054798    0.209780    1.714250
H       1.231911    1.646854    3.320294
