18

C      -0.451299    1.375100    0.081004
C       0.129150   -0.000164   -0.075086
N      -0.569576   -1.207413    0.478640
C       0.754291   -0.827913    1.001457
C       1.863879   -1.695552    0.421364
C       1.563885   -1.730503   -1.097415
O       0.716976   -2.800875   -1.477021
C       0.849114   -0.376990   -1.349632
O       0.906416    0.298274   -2.344574
H       0.309971    2.137127   -0.109200
H      -1.260660    1.536673   -0.637664
H      -0.845735    1.527208    1.090868
H      -1.301178   -0.885393    1.108895
H       0.823863   -0.445801    2.015143
H       2.835822   -1.226987    0.613140
H       1.877561   -2.705973    0.839650
H       2.462768   -1.803200   -1.711879
H      -0.077652   -2.705495   -0.928820
