16

C      -0.060834    1.562243    0.019802
C       0.080377    0.058412    0.047540
C       1.366012   -0.670411   -0.213333
O       2.566620    0.066301   -0.037184
C       2.597295    0.402988    1.290367
N       1.648467   -0.017363    2.039305
C       0.739798   -0.725369    1.180019
C       3.704286    1.192304    1.703327
C       4.644145    1.859423    2.042688
H       0.779092    2.066224    0.501429
H      -0.119781    1.923825   -1.011875
H      -0.972666    1.869871    0.540899
H      -0.772167   -0.479882   -0.360450
H       1.472806   -1.474611   -0.930229
H       0.234914   -1.580248    1.613070
H       5.473383    2.447561    2.351638
