19

C      -0.179232    1.613228    0.125398
C      -0.211695    0.103489    0.140969
C      -1.408462   -0.545898   -0.527397
O      -1.422114   -0.276319   -1.918369
O       1.037998   -0.546611   -0.238046
C       0.592076   -0.660969    1.096749
C       1.393730   -0.227241    2.321095
O       1.046262   -1.458895    2.992528
C       0.357868   -1.978248    1.833826
H       0.785098    1.988829    0.474325
H      -0.351959    1.975180   -0.891914
H      -0.968084    2.020273    0.767342
H      -1.402470   -1.627473   -0.328738
H      -2.339787   -0.134127   -0.123795
H      -0.587219   -0.608807   -2.268750
H       2.472443   -0.136266    2.141558
H       1.034954    0.656159    2.862877
H      -0.680243   -2.251908    2.057649
H       0.875349   -2.837025    1.387473
