21

C       0.011576    1.573871    0.087806
C       0.050876    0.064165    0.168330
C       1.263193   -0.749582   -0.178463
O       2.468294   -0.056929    0.163980
C       2.101583   -0.097238    1.567820
C       0.754765   -0.751449    1.250176
C       0.086877   -1.809143    2.081649
C      -0.641779   -1.234941    3.295367
O      -1.214607   -2.319551    4.007956
H       1.011357    1.996276    0.213079
H      -0.359768    1.896031   -0.890871
H      -0.646086    2.002442    0.851816
H      -0.868397   -0.433363   -0.139092
H       1.325466   -1.519188   -0.940658
H       2.777135   -0.762703    2.119237
H       2.106111    0.896633    2.031080
H      -0.638598   -2.363521    1.474846
H       0.824348   -2.541009    2.434842
H       0.068501   -0.673915    3.925080
H      -1.411042   -0.521643    2.958990
H      -1.672767   -1.968207    4.776793
