22

C       0.053500    1.570189    0.109571
C       0.004933    0.033283    0.055630
C       0.644161   -0.562027    1.322950
C      -1.455756   -0.432146   -0.075539
C       0.789935   -0.488582   -1.165871
N       0.390881    0.045667   -2.502837
C       1.791853    0.362008   -2.889006
C       2.207316    0.048730   -1.443579
O       3.203239    0.190238   -0.798023
H       1.076505    1.931147    0.258064
H      -0.333694    2.000690   -0.817971
H      -0.553430    1.942242    0.941424
H       0.126195   -0.201187    2.217751
H       0.583799   -1.656536    1.322617
H       1.698833   -0.282524    1.400815
H      -1.911177   -0.031724   -0.986775
H      -1.524388   -1.525751   -0.109276
H      -2.048770   -0.087373    0.778361
H       0.816508   -1.590035   -1.126554
H      -0.052026   -0.640164   -3.101899
H       2.257994   -0.323512   -3.610180
H       1.951964    1.390920   -3.229379
