18

C      -0.038547   -0.943566   -0.824355
C      -0.017617    0.110932   -0.249460
C      -0.010083    1.399604    0.436520
N       1.331881    1.999846    0.402080
C       1.658904    2.813404   -0.767114
C       1.447583    3.454413    0.559415
C       0.270675    4.349678    0.805972
C       0.064035    5.574379    0.018099
O      -0.752560    4.420518   -0.189921
H      -0.055746   -1.878200   -1.327829
H      -0.783564    2.045214   -0.004720
H      -0.279014    1.251550    1.490214
H       2.660321    2.685717   -1.167958
H       0.876092    2.972114   -1.505591
H       2.317209    3.744371    1.149343
H      -0.114351    4.341845    1.827287
H      -0.442622    6.427358    0.465768
H       0.754830    5.806375   -0.790537
