18

C      -0.235532    1.424043   -0.142364
C       0.181893   -0.035515   -0.092209
O       0.381682   -0.399189    1.263471
C       0.750994   -1.736775    1.440388
C       2.234398   -2.125947    1.114473
C       2.309865   -2.734549    2.524222
O       3.071727   -3.482476    3.063715
C       0.971242   -2.100745    2.930639
H       0.540189    2.060474    0.292697
H      -0.401607    1.737000   -1.177348
H      -1.160287    1.577920    0.420740
H      -0.593329   -0.678049   -0.542043
H       1.107063   -0.193569   -0.669736
H       0.037741   -2.409766    0.942743
H       2.442439   -2.797399    0.278353
H       2.868490   -1.235965    1.032324
H       1.120738   -1.195521    3.529069
H       0.244186   -2.745267    3.428765
