22

C      -0.025857    1.560455   -0.041372
C       0.059652    0.031566   -0.005765
C       0.673623   -0.534762   -1.298789
C       0.939824   -2.013970   -1.210714
C       0.919161   -2.692042   -0.063806
C       0.642993   -2.054545    1.274810
C       0.790547   -0.518935    1.243081
C       2.269242   -0.107471    1.330531
H       0.962234    2.020882   -0.146754
H      -0.633784    1.897077   -0.888278
H      -0.482417    1.954471    0.873281
H      -0.968780   -0.353351    0.052450
H       0.003088   -0.327529   -2.143617
H       1.607258   -0.002837   -1.539721
H       1.158920   -2.532571   -2.141538
H       1.103739   -3.764073   -0.069085
H      -0.371264   -2.326808    1.603080
H       1.315696   -2.479031    2.031718
H       0.282490   -0.111596    2.127381
H       2.856985   -0.535194    0.512308
H       2.394223    0.978966    1.305593
H       2.706943   -0.464809    2.268564
