21

C      -0.430607   -0.859331    3.409354
C      -0.236345   -0.861130    1.907060
C       0.889952   -0.079349    1.325015
N       0.954615   -1.550267    1.365635
C      -1.466231   -1.098284    1.054059
N      -2.784992   -1.121542    1.708297
C      -2.490341   -0.069478    0.716061
C      -2.502005    1.334481    1.275402
O      -3.804927    1.704467    1.693987
H       0.521470   -0.668851    3.916013
H      -1.146553   -0.098145    3.728859
H      -0.820228   -1.824504    3.748775
H       0.800098    0.343693    0.327703
H       1.517624    0.494491    2.002724
H       1.557887   -1.849226    2.128494
H      -1.279887   -1.841191    0.281410
H      -3.371043   -1.847567    1.307511
H      -2.971075   -0.167378   -0.256027
H      -1.777604    1.421263    2.097422
H      -2.207935    2.052018    0.502163
H      -4.092552    1.004521    2.292632
