15

O      -0.054656    1.445121    0.112860
C       0.004872    0.036027   -0.026372
C       0.590423   -0.678911    1.222788
C      -0.014822   -0.230325    2.468195
C      -0.508054    0.136923    3.499812
C      -1.467028   -0.393112   -0.250560
O      -1.899343   -1.473334    0.033075
C       0.753614   -0.350326   -1.226769
C       1.372313   -0.649998   -2.213163
H       0.838593    1.796955    0.034037
H       0.430281   -1.753754    1.086550
H       1.673464   -0.511496    1.241675
H      -0.949108    0.457086    4.411091
H      -2.073269    0.409078   -0.718494
H       1.914363   -0.917654   -3.087152
