17

N       0.030464   -1.086777   -0.053546
C       0.005060    0.068943   -0.003461
C      -0.033103    1.495425    0.033209
N      -1.003684    2.173458    0.893615
C      -0.654206    3.568831    0.529183
C       0.853314    3.576872    0.861555
C       1.211856    2.373223   -0.001669
C       0.272801    2.376006   -1.191258
C      -0.645318    3.579332   -1.023633
H      -1.949444    1.953695    0.585324
H      -1.279811    4.303471    1.032206
H       1.352341    4.494614    0.538998
H       1.040339    3.409351    1.924272
H       2.197917    1.932307   -0.042369
H       0.539715    1.943954   -2.145544
H      -1.640046    3.423506   -1.453681
H      -0.220968    4.498628   -1.438442
