19

O      -0.000446    1.400948    0.221983
C      -0.012544    0.005408    0.093258
C      -0.453817   -0.755744    1.328303
C      -1.307874   -0.724305    0.087915
C      -2.747043   -0.232101   -0.175288
C      -2.508149   -0.639583   -1.660758
C      -1.905282   -1.812648   -0.832167
C      -3.201124   -1.716926    0.045554
O      -3.254860   -2.274831    1.320468
H      -0.295456    1.777940   -0.613499
H       0.824408   -0.411982   -0.468857
H       0.091417   -1.658051    1.589771
H      -0.750455   -0.138660    2.171540
H      -3.216691    0.676248    0.202612
H      -3.397286   -0.866063   -2.255801
H      -1.793317   -0.032889   -2.219437
H      -1.413357   -2.710786   -1.207595
H      -4.127796   -1.999842   -0.460796
H      -2.452926   -2.019111    1.790030
