23

C      -0.109543    1.518785    0.020789
C      -0.035141   -0.014985    0.005706
C      -1.465358   -0.540220   -0.151124
C       1.114483   -0.611319   -0.890187
C       2.106742   -0.248096    0.252036
C       0.869528   -0.618376    1.134318
O       0.674942   -0.149300    2.433588
C       0.790218   -2.141158    0.884196
C       0.980326   -2.135460   -0.668553
H       0.859248    2.015892    0.075638
H      -0.612840    1.877755   -0.883833
H      -0.696789    1.854498    0.881750
H      -1.919124   -0.140522   -1.064998
H      -1.538601   -1.627611   -0.199664
H      -2.081717   -0.206089    0.690898
H       1.267770   -0.262667   -1.911742
H       2.999549   -0.873655    0.350271
H       2.385533    0.801336    0.302486
H       1.219987   -0.669653    3.033300
H       1.595472   -2.671220    1.404979
H      -0.158667   -2.572654    1.211491
H       0.136514   -2.577507   -1.203615
H       1.884021   -2.667063   -0.979702
