20

C       0.000158    1.568922   -0.178769
C      -0.014235    0.077777    0.072551
C       1.255962   -0.727947    0.025465
N       0.562974   -0.543675    1.283994
C       1.182371    0.310033    2.298408
C       1.847044   -0.571649    3.355018
O       2.862930   -1.395632    2.809428
C      -1.257650   -0.636369   -0.359684
O      -2.140354   -0.136091   -1.009580
H       0.978384    2.011381    0.015806
H      -0.268333    1.760659   -1.220546
H      -0.744177    2.076125    0.443407
H       1.260879   -1.736300   -0.383637
H       2.168816   -0.160650   -0.150048
H       1.932402    0.994837    1.875614
H       0.400445    0.913420    2.774454
H       2.330836    0.063240    4.104833
H       1.077280   -1.170234    3.863180
H       2.423958   -2.054535    2.262079
H      -1.297977   -1.694816   -0.018923
