14

C      -0.054773    1.409169    0.037469
N      -0.028918   -0.031874    0.127471
C      -1.197855   -0.853329   -0.096981
C      -0.579034   -2.257056    0.029300
O       0.818611   -2.067404   -0.215953
C       1.130992   -0.740434   -0.090897
O       2.251954   -0.315019   -0.163268
H       0.973515    1.764890    0.116717
H      -0.476501    1.747873   -0.919592
H      -0.650940    1.838962    0.849557
H      -1.978169   -0.675082    0.650258
H      -1.633503   -0.675072   -1.092604
H      -0.709537   -2.665360    1.037624
H      -0.968885   -2.970912   -0.698420
