19

C       0.020487    1.292084   -0.245746
O      -0.060264    0.033688    0.385074
C      -1.306800   -0.588144    0.224085
C      -1.586051   -1.398932   -1.067976
C      -0.570731   -2.507188   -0.583456
C      -1.156257   -3.846725   -1.001627
C      -2.465450   -3.703902   -0.788770
C      -2.598399   -2.285897   -0.252932
C      -1.368238   -2.044841    0.699503
H       1.008898    1.703560   -0.027459
H      -0.099182    1.216240   -1.336941
H      -0.744426    1.986874    0.135555
H      -2.117990    0.075966    0.559685
H      -1.720958   -1.040975   -2.092082
H       0.498714   -2.321994   -0.644677
H      -0.605543   -4.696833   -1.378789
H      -3.275670   -4.402102   -0.944459
H      -3.578581   -1.888528    0.013960
H      -1.245107   -2.423248    1.717153
