16

O      -0.197150    1.408802   -0.173139
C      -0.069213    0.002108   -0.122986
C      -1.216269   -0.540236    0.785921
O      -0.244554   -0.752576    1.896680
C       0.759203   -0.577450    0.986460
N       1.881393   -1.124673    0.765840
C       2.004975   -1.064670   -0.691769
C       1.068233   -2.021466   -1.376540
C       0.659107   -0.568810   -1.316795
H       0.671894    1.775324   -0.373969
H      -1.968229    0.199081    1.058861
H      -1.651622   -1.497603    0.495422
H       2.979545   -0.844201   -1.109879
H       1.344393   -2.387676   -2.360257
H       0.567376   -2.753899   -0.750800
H       0.636167   -0.002269   -2.239973
