13

O      -0.118061    0.068614    0.082482
C      -0.052699    1.250037    0.061543
N      -1.116988    2.277455   -0.093917
C      -0.985785    2.987008    1.253462
C       0.366732    3.513872    0.782917
C      -0.019052    3.215884   -0.609553
C       1.028800    2.298209    0.037795
C       2.429488    2.206111   -0.185405
N       3.568151    2.116302   -0.369751
H      -1.736787    3.775742    1.327608
H      -1.039877    2.321924    2.119975
H       1.000407    4.304914    1.165449
H       0.006466    3.705194   -1.570913
