14

C       0.096422    1.468727    0.020776
C      -0.082396   -0.001563    0.011399
C      -1.157686   -0.795059   -0.183198
N      -0.692487   -2.110630   -0.070437
C      -0.949857   -3.459619   -0.098906
N       0.163215   -4.120511    0.126842
N       1.207552   -3.220775    0.314077
C       0.646299   -2.054211    0.187296
O       1.054042   -0.768255    0.244582
H       0.811592    1.782327   -0.747050
H      -0.858878    1.961393   -0.171491
H       0.477603    1.812024    0.988376
H      -2.182146   -0.537749   -0.385004
H      -1.919766   -3.891603   -0.279070
