18

C      -0.010809    1.439415    0.024742
N       0.018867   -0.006626   -0.103225
C      -1.241598   -0.743865   -0.039951
C      -1.114024   -2.072362   -0.778924
N       0.046733   -2.853171   -0.384132
C       1.076774   -2.192774   -0.010219
N       2.226838   -2.793087    0.410697
C       1.195782   -0.672321    0.017238
O       2.292245   -0.136377    0.114879
H       1.013168    1.808092   -0.017387
H      -0.596688    1.879543   -0.789263
H      -0.462690    1.741476    0.978799
H      -1.527109   -0.915285    1.009440
H      -2.023399   -0.126652   -0.494712
H      -2.016672   -2.665985   -0.597093
H      -1.078579   -1.887853   -1.863842
H       2.338943   -3.769010    0.189616
H       3.043173   -2.200230    0.407203
