16

C       0.056878    1.552347    0.013258
C      -0.035382    0.021597   -0.038403
O      -1.388577   -0.401284   -0.036391
C       0.726871   -0.582668   -1.234893
C       1.946059   -1.217816   -0.614037
C       1.930061   -1.211374    0.726794
C       0.684090   -0.580446    1.193176
O       0.215165   -0.542119    2.310123
H       1.095265    1.895992   -0.045280
H      -0.504957    1.980987   -0.821458
H      -0.372168    1.917317    0.951483
H      -1.666537   -0.384674    0.890353
H       0.102030   -1.336184   -1.727738
H       0.995238    0.157845   -1.996467
H       2.736150   -1.647378   -1.221540
H       2.669047   -1.637597    1.392763
