16

C      -0.067943    1.404618   -0.012976
N       0.063165   -0.034876    0.052915
C       0.654245   -0.688079    1.085079
N       1.253108    0.049349    2.031906
C       1.840432   -0.646984    3.010310
C       1.848120   -2.027937    3.082972
C       1.180553   -2.677973    2.037860
O       1.129441   -4.020854    2.026315
N       0.586429   -2.036784    1.045839
H       0.901926    1.881399    0.146527
H      -0.438205    1.675649   -1.004169
H      -0.760305    1.797973    0.742570
H      -0.459919   -0.613444   -0.581528
H       2.331202   -0.057163    3.781907
H       2.324307   -2.577389    3.882239
H       0.631980   -4.263152    1.232096
