18

C      -0.305056    1.342838    0.323178
O      -0.265848   -0.077241    0.326123
C       0.830508   -0.611675    0.979282
O       0.780750   -0.365955    2.387400
C       0.256420   -1.467970    3.016634
N      -0.088342   -1.553465    4.221252
O       0.166501   -2.500077    2.152663
C       0.802839   -2.148220    0.913469
C       0.053470   -2.764538   -0.250035
H       0.603467    1.761028   -0.134075
H      -1.172416    1.632515   -0.271993
H      -0.408193    1.740702    1.338410
H       1.765469   -0.165723    0.615218
H       0.028728   -0.654502    4.682276
H       1.835993   -2.517765    0.948739
H      -0.969247   -2.388472   -0.288931
H       0.553672   -2.517819   -1.190956
H       0.036131   -3.851659   -0.141896
