18

O      -0.684365    0.846999   -0.689773
C       0.151329    0.985252    0.171058
C       1.325513    1.895592    0.077647
C       1.504523    2.757840   -1.198867
C       2.912051    2.120568   -1.436244
C       2.746568    1.263351   -0.155051
N       3.266093    1.743114    1.183786
C       3.126827    3.208386    1.258809
C       1.906829    2.401090    1.411897
H       0.109816    0.384180    1.108909
H       0.766600    2.492987   -1.957365
H       1.481209    3.838350   -1.041246
H       2.963197    1.506297   -2.337941
H       3.767910    2.799708   -1.441988
H       2.889220    0.186358   -0.237816
H       3.565004    3.605683    2.169612
H       3.289294    3.830366    0.385271
H       1.390896    2.304481    2.363319
