17

O       0.100446   -0.324596    0.487654
C       0.064381    0.885242    0.492251
C       1.189243    1.740028    0.220992
C       2.113623    2.487573    0.000399
C       3.231381    3.370140   -0.279131
C       3.907288    3.122239   -1.668197
C       4.373893    4.503587   -2.056796
C       3.829171    5.454926   -1.301473
C       2.891360    4.894090   -0.260483
H      -0.875597    1.431385    0.714591
H       3.996722    3.194172    0.486960
H       4.713827    2.386097   -1.596066
H       3.186752    2.728006   -2.396479
H       5.045112    4.671796   -2.891358
H       3.987438    6.520443   -1.423456
H       1.843227    5.070271   -0.535740
H       3.030215    5.325951    0.735851
