18

C      -0.247183    1.593162    0.004241
C      -0.057555    0.074496   -0.023515
C       0.711605   -0.435488   -1.248398
O       0.149021   -0.020070   -2.496393
C       2.147199    0.105788   -1.282968
O       2.825776    0.285451   -0.309856
C       0.837175   -1.988929   -1.178667
N       0.809455   -2.584147   -2.398570
O       0.976311   -2.576090   -0.126795
H       0.713436    2.110537    0.076406
H      -0.756503    1.954339   -0.894683
H      -0.847946    1.883010    0.870709
H       0.492931   -0.269503    0.854344
H      -1.030059   -0.434481    0.006079
H      -0.808097   -0.108130   -2.432275
H       2.509165    0.309157   -2.314522
H       0.630665   -2.034058   -3.221124
H       0.876108   -3.586762   -2.452439
