15

C      -0.006763    1.511514   -0.132658
C      -0.010297    0.022964    0.136722
N      -0.041762   -0.556281    1.276217
N       0.025460   -0.739957   -1.012062
C       0.030589   -2.120203   -1.052625
C       0.005603   -3.086088   -0.092853
O       0.027289   -4.271611   -0.723279
N       0.066341   -4.015423   -2.098744
N       0.067615   -2.760466   -2.267971
H       0.893407    1.807139   -0.682715
H      -0.874070    1.801814   -0.735786
H      -0.036591    2.068071    0.804764
H      -0.065588    0.131994    2.024308
H       0.049920   -0.284835   -1.909527
H      -0.025485   -3.061729    0.978801
