19

C       0.212590    1.358962    0.188981
C      -0.102400   -0.103180   -0.149726
N       0.634932   -0.566815   -1.315716
C       1.774292   -1.090803   -1.150946
O       2.431722   -1.312955    0.047374
C       3.633948   -1.937772   -0.235021
C       3.753956   -2.099653   -1.556195
N       2.612025   -1.564787   -2.146834
C       2.262147   -1.566793   -3.548285
H       1.262587    1.472340    0.476946
H       0.026671    2.001863   -0.676763
H      -0.409298    1.708832    1.020170
H       0.090012   -0.729613    0.733417
H      -1.170860   -0.193839   -0.377744
H       4.263804   -2.180900    0.601430
H       4.546281   -2.537088   -2.139357
H       2.000177   -2.571807   -3.900980
H       1.394784   -0.915876   -3.665334
H       3.090727   -1.183665   -4.152198
