20

C      -0.162565    1.602275    0.169117
C       0.017079    0.099691   -0.012548
C       0.800841   -0.471085   -1.245380
C       1.396373    0.503749   -2.245376
O       2.186024   -0.258592   -3.149585
N       1.756891   -1.040073   -0.288638
C       2.879699   -1.929549   -0.454363
C       1.120942   -0.579247    0.835789
O       1.367842   -0.690960    2.010290
H       0.781397    2.145136    0.064624
H      -0.876980    2.013585   -0.551293
H      -0.545116    1.803491    1.173979
H      -0.941254   -0.412191    0.118446
H       0.250702   -1.242616   -1.800178
H       0.581950    1.030075   -2.768566
H       2.004865    1.254123   -1.720992
H       2.611722    0.345542   -3.765005
H       3.634307   -1.493188   -1.114270
H       3.311618   -2.102728    0.534284
H       2.568068   -2.892320   -0.879128
