19

N      -0.176944    1.339372   -0.142561
C      -0.001915   -0.039417   -0.098423
O       1.087042   -0.567983   -0.257617
N      -1.156749   -0.745956    0.116726
C      -1.176487   -2.195556    0.024972
C      -2.497825   -2.684185    0.640209
O      -3.621745   -2.015707    0.089913
C      -0.978514   -2.708674   -1.406887
O      -2.110577   -2.318739   -2.191671
H       0.695665    1.838758   -0.060703
H      -0.927214    1.731880    0.406462
H      -2.054551   -0.307088   -0.024297
H      -0.339066   -2.586442    0.612871
H      -2.571944   -3.775611    0.517152
H      -2.505382   -2.466133    1.712631
H      -3.571057   -2.158097   -0.866216
H      -0.052345   -2.284594   -1.809553
H      -0.882043   -3.804988   -1.382161
H      -1.965362   -2.587177   -3.102707
