16

C      -0.048994    1.493236    0.023110
C       0.001815    0.000555    0.011176
C      -0.004360   -0.824961   -1.058144
O       0.054733   -2.149164   -0.655788
C       0.092981   -2.146033    0.687181
N       0.223002   -3.365240    1.308161
C       0.059769   -0.861923    1.180864
C       0.070565   -0.501205    2.541854
C       0.071770   -0.204925    3.712005
H       0.834597    1.915466    0.514497
H      -0.098222    1.895054   -0.992351
H      -0.922719    1.855391    0.576223
H      -0.044456   -0.669143   -2.122254
H      -0.238096   -4.127553    0.830413
H      -0.000703   -3.330280    2.293094
H       0.085716    0.063017    4.738766
