15

N       0.134753    1.488694   -0.074457
C       0.048856    0.079481   -0.038298
C       0.075459   -0.865038   -1.202389
N       1.256244   -1.674780   -1.124063
C       1.757376   -1.704854    0.169442
O       2.708732   -2.332984    0.565877
C       0.744709   -0.873085    0.972357
O      -0.440332   -1.746914    0.987100
C      -0.997057   -1.028028   -0.098302
H       0.017729    1.864010   -1.006929
H      -0.525484    1.939191    0.548711
H      -0.233968   -0.515954   -2.180974
H       1.427516   -2.457086   -1.737189
H       1.044802   -0.549977    1.966283
H      -2.067165   -1.084269   -0.263283
