22

C      -0.081423    1.542520   -0.065540
C       0.073162    0.018117   -0.026372
C       0.958708   -0.454412   -1.192217
O       0.428217   -0.118070   -2.465426
C       0.626122   -0.512125    1.316286
C      -0.161058   -0.008601    2.540907
C       0.564734   -2.044867    1.330468
N       1.699399   -2.675842    1.749932
O      -0.441371   -2.657807    1.022562
H       0.854391    2.042819    0.214410
H      -0.333279    1.854930   -1.081979
H      -0.867473    1.898236    0.605207
H      -0.912090   -0.449570   -0.157532
H       1.935306    0.043811   -1.141621
H       1.137738   -1.536841   -1.119134
H      -0.385560   -0.619803   -2.580381
H       1.671503   -0.186724    1.418586
H      -1.212802   -0.297064    2.456887
H       0.234803   -0.445357    3.463447
H      -0.100743    1.077992    2.632688
H       2.542320   -2.178660    1.975026
H       1.697061   -3.681590    1.803976
