20

C      -0.294386    1.528671   -0.190927
C       0.042979    0.046794   -0.103388
C       1.430432   -0.412188   -0.605180
O       1.742063   -1.027689    0.663219
C       0.497371   -0.577105    1.248808
C       0.736938    0.326721    2.449543
C       1.518884   -0.432930    3.540551
C       1.816909    0.400923    4.701408
N       2.041919    1.075728    5.612260
H       0.506900    2.157387    0.208989
H      -0.449804    1.820219   -1.235044
H      -1.213472    1.764364    0.355624
H      -0.765577   -0.538644   -0.548729
H       1.437372   -1.139603   -1.424941
H       2.128395    0.400752   -0.846119
H      -0.110369   -1.439434    1.560473
H       1.309895    1.209801    2.152732
H      -0.221838    0.675325    2.849463
H       0.952858   -1.309879    3.876576
H       2.456800   -0.803610    3.114090
