17

N       0.141488   -1.179743   -0.322539
C       0.037853   -0.036723   -0.187999
C      -0.054391    1.410760   -0.010848
C       1.331728    2.064502    0.059344
N       2.069838    2.088875   -1.225425
C       2.489014    3.501938   -1.021783
C       1.425862    3.596436    0.073695
C       0.408554    4.614065    0.330181
O       1.508690    4.389530    1.230497
H      -0.612396    1.836913   -0.850600
H      -0.612773    1.617541    0.909905
H       1.897278    1.639605    0.900581
H       2.825210    1.417753   -1.298333
H       3.499301    3.634339   -0.612320
H       2.372349    4.138463   -1.904591
H       0.439100    5.554091   -0.218434
H      -0.570230    4.331713    0.714919
