20

C      -0.001475    1.459906   -0.011775
C       0.019065   -0.060528   -0.007979
O       0.050317   -0.715439    1.022377
N       0.000653   -0.664189   -1.230118
C      -0.037721   -0.013398   -2.540406
C      -0.042882   -1.188729   -3.478140
C      -0.012743   -2.351561   -2.827828
C      -0.006896   -3.730792   -3.402128
C       0.017435   -2.122472   -1.337600
H       0.863829    1.869641   -0.543751
H      -0.900028    1.845945   -0.504928
H       0.016667    1.802427    1.022185
H      -0.931721    0.618035   -2.660627
H       0.832429    0.642069   -2.700280
H      -0.068621   -1.063850   -4.553907
H      -0.032898   -3.710699   -4.494493
H       0.887597   -4.284583   -3.090946
H      -0.869781   -4.309341   -3.049530
H       0.911924   -2.546237   -0.859229
H      -0.843495   -2.569346   -0.820237
