17

C       0.036473    1.530953    0.047749
C       1.342229    0.726236   -0.055805
C       1.963165    0.413233    1.272712
C       1.174429   -0.363442    2.047122
C       0.000162   -0.751249    1.279657
C      -0.901396   -1.730535    1.174721
C      -1.519337   -1.654229   -0.205349
O      -0.737646   -0.686765   -0.934229
C      -0.006629    0.031882    0.014420
H      -0.173153    2.082396    0.959594
H      -0.286626    2.007199   -0.872896
H       1.948741    0.831108   -0.947395
H       2.932072    0.800125    1.568781
H       1.402977   -0.699001    3.049972
H      -1.130614   -2.515466    1.883128
H      -1.478244   -2.614481   -0.735908
H      -2.573342   -1.331337   -0.186980
