21

C      -0.173272    1.610540   -0.019119
C      -0.010177    0.094571   -0.017266
O       0.676888   -0.296195   -1.225463
C      -0.038350   -0.837771   -2.227545
O       0.447303   -1.158783   -3.270405
C       0.772048   -0.489015    1.192341
C       0.741305   -2.018100    1.140277
C       2.213955    0.024620    1.252729
O       0.051475   -0.130957    2.376427
H       0.791663    2.114682   -0.115848
H      -0.797782    1.920042   -0.862002
H      -0.663632    1.941405    0.899892
H      -1.002856   -0.374307   -0.005528
H      -1.110703   -0.954126   -1.974508
H       1.232983   -2.392231    0.239783
H       1.252105   -2.426530    2.015833
H      -0.292333   -2.377654    1.155027
H       2.248112    1.111431    1.389582
H       2.736540   -0.438403    2.094272
H       2.750932   -0.211646    0.331029
H       0.332384    0.748520    2.647528
