21

C      -0.075980    1.414364   -0.255285
C       0.037298   -0.051360    0.100699
C       1.348219   -0.797511   -0.007360
C       0.721807   -0.563825    1.350491
C       1.380364    0.395714    2.327492
N       0.078239   -1.733856    1.916689
C       0.980117   -2.658596    2.597042
C       0.268093   -3.873816    3.005479
N      -0.294870   -4.821785    3.349850
H       0.838107    1.969609   -0.026728
H      -0.264723    1.530464   -1.327997
H      -0.902209    1.896898    0.279018
H      -0.830863   -0.645062   -0.170733
H       1.330691   -1.804467   -0.408489
H       2.236950   -0.224582   -0.252947
H       1.840874    1.245503    1.818705
H       0.647536    0.791909    3.041177
H       2.171426   -0.098754    2.902394
H      -0.675109   -1.462146    2.541222
H       1.774992   -2.941157    1.896747
H       1.481652   -2.252112    3.491789
