16

C      -0.027249    1.442330    0.128084
C       1.306346    0.724706   -0.013551
N       2.068979    0.332758    1.165710
C       1.215819   -0.457408    1.946279
C       1.108986   -1.075034    3.175468
C      -0.145745   -1.738149    3.090167
N      -0.773053   -1.544298    1.930423
N       0.097489   -0.763256    1.249183
C       0.012007   -0.063853    0.004895
H      -0.306471    1.861055    1.088542
H      -0.363642    2.000387   -0.738789
H       1.885138    0.855355   -0.919844
H       2.539624    1.084973    1.651161
H       1.809367   -1.073745    3.993078
H      -0.606832   -2.363114    3.841853
H      -0.397867   -0.598565   -0.841971
