15

N      -0.045642    1.318372   -0.051089
C       0.960785    2.295729   -0.013422
N       2.136100    2.285570   -0.483459
C       2.822652    1.252661   -1.090771
C       3.240948    0.080751   -0.561964
N       3.069783   -0.381352    0.722110
C       1.941629   -0.675747    1.253525
N       0.723715   -0.854347    0.658767
C      -0.052759   -0.059502    0.045613
H      -0.968256    1.710634   -0.178147
H       0.584962    3.234311    0.397040
H       3.283933    1.556272   -2.028109
H       3.974286   -0.476887   -1.141422
H       1.959545   -1.015522    2.291223
H      -0.954273   -0.485018   -0.400303
