14

O       0.043809    0.056907    0.504890
C      -0.019806    1.206784    0.116804
C      -1.298521    1.898035   -0.137563
C      -1.377970    3.033708   -0.841103
C      -0.199197    3.746967   -1.437461
C       1.135868    3.260224   -0.921897
O       1.304316    3.281234    0.487150
C       1.231379    1.998117   -0.157124
H      -2.185577    1.396324    0.235150
H      -2.351907    3.479561   -1.029547
H      -0.226258    3.640442   -2.531591
H      -0.285842    4.825842   -1.248740
H       2.012018    3.582721   -1.484500
H       2.151304    1.417780   -0.144793
