18

C      -0.555891    0.918337   -1.111671
O       0.186872    0.101140   -0.227984
C       1.169658   -0.724336   -0.840425
C       2.271694   -0.974937    0.175033
C       0.511265   -2.042393   -1.275499
O       0.574207   -3.086939   -0.680372
O      -0.194917   -1.873160   -2.414079
C      -0.915404   -3.029216   -2.865287
H       0.105104    1.566921   -1.706942
H      -1.177568    0.333151   -1.799513
H      -1.199420    1.545342   -0.489671
H       1.567372   -0.226251   -1.737081
H       3.057824   -1.601373   -0.254934
H       2.704226   -0.021901    0.488001
H       1.864646   -1.490032    1.047376
H      -1.418235   -2.726733   -3.783751
H      -0.228550   -3.856889   -3.058030
H      -1.643752   -3.345537   -2.114546
