20

C       0.788464   -0.363695   -0.741326
C       0.071957   -1.718489   -0.693869
C      -1.386837   -1.595214   -0.293403
C      -2.176291   -2.681814    0.363810
C      -1.614772   -4.047671    0.705196
C      -1.841870   -1.414682    1.164712
C      -0.880258   -1.435072    2.285292
O      -0.987199   -0.747411    3.274457
H       1.824291   -0.477515   -1.074896
H       0.288198    0.323308   -1.432467
H       0.801848    0.112487    0.244522
H       0.114596   -2.189451   -1.684645
H       0.611554   -2.391970   -0.021581
H      -1.953159   -0.968161   -0.979114
H      -3.224105   -2.720668    0.076328
H      -0.555530   -4.025374    0.968695
H      -2.155052   -4.489775    1.548606
H      -1.724450   -4.723115   -0.150179
H      -2.656427   -0.719031    1.337889
H      -0.022127   -2.134078    2.179896
