15

O      -0.099918    1.397698    0.171080
C       0.007400   -0.011256    0.054210
C      -1.415233   -0.547004   -0.104688
C      -1.503901   -2.084982   -0.035735
O      -1.851645   -2.377988    1.320700
C      -2.327928   -1.244906    1.931637
O      -2.732404   -1.224888    3.059008
N      -2.261477   -0.206368    1.023972
H       0.760184    1.755670    0.408322
H       0.608407   -0.303344   -0.821785
H       0.467163   -0.459622    0.948667
H      -1.834297   -0.160330   -1.039115
H      -2.284358   -2.472940   -0.698602
H      -0.558465   -2.581533   -0.270266
H      -2.239133    0.732136    1.391906
