18

C      -0.026034    1.560253    0.061482
C       1.486209    1.769892   -0.019894
C       2.009999    0.875379   -1.193389
C       0.972283   -0.315511   -1.227852
C       0.029004    0.041502   -0.050025
N       1.092355   -0.435269    0.933196
C       2.095792    0.716391    0.945499
C       2.914495    0.055530   -0.202493
C       1.866462   -1.081525   -0.212869
H      -0.459418    1.900231    1.008501
H      -0.573617    2.019853   -0.768910
H       1.875542    2.786367    0.041639
H       2.351656    1.312080   -2.130023
H       0.609966   -0.691310   -2.185236
H      -0.906137   -0.512045    0.048027
H       2.466689    0.987251    1.935074
H       3.997017   -0.036467   -0.258944
H       2.046589   -2.156683   -0.181807
