15

N      -0.223075    1.455010    0.068350
C      -0.003956    0.067513   -0.016171
C      -0.979706   -1.098069    0.061504
N      -0.395848   -1.733469   -1.112104
C       0.805157   -0.835159   -1.015626
C       1.822645   -1.547754   -0.137603
O       2.886292   -2.023471   -0.407179
O       1.250056   -1.661838    1.111580
C       0.079210   -0.871264    1.144935
H       0.613087    1.964452    0.334309
H      -0.575874    1.842803   -0.799891
H      -2.042890   -1.131695    0.269344
H      -0.183480   -2.725507   -0.999239
H       1.188494   -0.461152   -1.963005
H      -0.208015   -0.563127    2.140987
