18

C      -0.212282    1.505536   -0.222528
C      -0.042429    0.004623   -0.031242
N       0.838884   -0.489766   -1.168711
C       1.633125   -1.243767   -0.534405
O       2.947637   -0.868525   -0.240737
C       2.363092   -0.787693    1.152595
C       3.357536   -0.554450    2.240217
C       0.776944   -0.415241    1.223046
C       1.313755   -1.769732    0.899082
H       0.763126    1.991845   -0.305387
H      -0.780023    1.717009   -1.131975
H      -0.749703    1.930190    0.633757
H      -1.029958   -0.481652    0.002771
H       3.822309    0.430462    2.139275
H       2.862086   -0.603952    3.213732
H       4.143281   -1.315125    2.205007
H       0.422363   -0.164935    2.221617
H       1.104250   -2.769489    1.256155
