17

C       0.044114    1.605928   -0.192581
C       0.041128    0.128617    0.073725
O       0.543256   -0.580526   -1.121140
C       0.515791   -1.991761   -0.802073
C      -0.028683   -1.824897    0.598882
O      -0.453202   -2.455335    1.824276
C      -0.625524   -0.966120    2.016362
C       0.676222   -0.605076    1.265511
C      -1.133363   -0.725612    0.576592
H       1.056314    1.954265   -0.418651
H      -0.595440    1.844205   -1.047677
H      -0.325072    2.148979    0.681847
H      -0.148722   -2.526279   -1.488888
H       1.524524   -2.414822   -0.851861
H      -1.014486   -0.658394    2.984207
H       1.696611   -0.599977    1.644060
H      -2.139897   -0.855521    0.183485
