18

C       0.250267    1.419724    0.153965
N       0.352119   -0.019416    0.003976
C       0.441563   -0.619408   -1.212115
O       0.410512   -0.037448   -2.280939
C       0.563704   -2.142529   -1.127918
C       1.368281   -2.875886   -2.237817
C       2.243068   -3.584465   -1.154794
C       1.551754   -2.715654   -0.098979
O       1.740932   -2.478797    1.063126
H       1.174726    1.850690    0.555908
H       0.065908    1.843439   -0.833751
H      -0.576508    1.683714    0.821246
H       0.545749   -0.588611    0.816931
H      -0.440313   -2.554188   -0.971210
H       0.785935   -3.538235   -2.877624
H       1.920011   -2.174001   -2.863633
H       2.027991   -4.649140   -1.018311
H       3.327540   -3.460019   -1.217715
