15

C      -0.031500    1.447732   -0.041688
N      -0.068282    0.004057    0.064102
C      -1.227323   -0.707514    0.040988
N      -1.101357   -2.057896   -0.024624
C      -2.226737   -2.731437   -0.006054
C      -3.457735   -2.054151    0.077788
O      -4.610711   -2.755633    0.105143
N      -3.512557   -0.739168    0.120605
N      -2.382369   -0.032506    0.096417
H       1.003698    1.777312    0.067491
H      -0.422143    1.808662   -1.002145
H      -0.632790    1.901369    0.750282
H       0.759122   -0.528274   -0.145134
H      -2.187750   -3.816692   -0.060793
H      -5.324067   -2.103087    0.156244
