20

C       0.099570    1.500010    0.084807
N       0.070887    0.053730    0.059186
C       0.502333   -0.581409   -0.946081
C       1.092922   -0.054815   -2.235184
O       0.473136   -1.937781   -0.965394
C      -0.061158   -2.585787    0.189893
C       0.019280   -4.090427   -0.084097
C      -0.500075   -4.873324    1.029357
C      -0.933944   -5.495140    1.961568
H       0.686438    1.837030    0.947746
H       0.513552    1.979774   -0.812831
H      -0.918091    1.881480    0.231484
H       1.987568    0.542761   -2.037816
H       1.361895   -0.885814   -2.886903
H       0.377067    0.586139   -2.757871
H       0.516041   -2.308983    1.077112
H      -1.093223   -2.264075    0.358052
H      -0.540581   -4.317112   -0.999413
H       1.063043   -4.361860   -0.282885
H      -1.314909   -6.054970    2.779239
