17

C      -0.009080    1.521662    0.001563
C       0.058567    0.018054    0.024666
C      -0.826887   -0.807490    0.933894
C       0.668897   -0.834900    1.139910
N       1.380990   -1.858430    0.413344
C       2.182096   -2.847074    0.936166
O       2.758820   -3.678488    0.275292
C       1.133127   -1.647389   -0.948486
N       0.424139   -0.622918   -1.227561
H       0.939930    1.950585   -0.334328
H      -0.791558    1.852632   -0.688389
H      -0.237132    1.919728    0.994543
H      -1.397655   -0.262799    1.678181
H      -1.314961   -1.687643    0.528691
H       1.137200   -0.455927    2.039899
H       2.237180   -2.791623    2.039328
H       1.541621   -2.349187   -1.663353
