20

C       0.000881    1.476073   -0.059061
O       1.206289    0.711987   -0.000509
C      -0.044807    0.009420   -0.011221
C      -0.401305   -0.722331    1.237171
C      -1.647018   -1.585060    1.279897
C      -0.288676   -2.228546    1.307278
N       0.127648   -2.928382    0.124862
C       1.451194   -3.543625    0.161921
C       0.221473   -4.381850    0.224885
H      -0.233391    2.049592    0.837755
H      -0.181663    1.996720   -0.998700
H      -0.241128   -0.532291   -0.934639
H      -0.146487   -0.184376    2.145598
H      -2.249313   -1.582784    2.181198
H      -2.206638   -1.690960    0.356737
H       0.048347   -2.644768    2.261123
H       2.028966   -3.475304   -0.754980
H       2.033149   -3.440977    1.075951
H      -0.020790   -4.841445    1.181647
H      -0.114528   -4.938254   -0.645453
