15

O       0.009380    0.457996    0.995074
C      -0.013876    1.384475    0.228781
C      -1.283437    2.054494   -0.325253
C      -0.818865    3.363646   -0.929176
C      -0.058120    4.301806   -0.025789
C       0.704047    3.384959   -0.949627
C       1.221110    2.089544   -0.358885
H      -1.709054    1.389117   -1.087988
H      -2.031302    2.148870    0.468089
H      -1.382778    3.787228   -1.751733
H      -0.076176    5.358166   -0.269454
H      -0.040901    4.095844    1.041727
H       1.233601    3.823842   -1.786868
H       1.987070    2.205106    0.414131
H       1.644548    1.436048   -1.133019
