18

C       0.244011    1.520743    0.246834
C      -0.222261    0.114382   -0.139420
C       0.572551   -0.462631   -1.300815
N       1.911363   -0.982224   -0.948635
C       0.876314   -1.945929   -1.376869
C       0.381551   -2.884515   -0.409162
C      -0.052289   -3.689275    0.371690
C       0.428554    0.213389   -2.566737
C       0.316353    0.792922   -3.615282
H       1.298908    1.507822    0.537122
H       0.128564    2.220146   -0.586924
H      -0.337202    1.901929    1.091407
H      -0.115431   -0.565744    0.709671
H      -1.283142    0.124343   -0.414798
H       2.559135   -0.824175   -1.717192
H       0.957565   -2.341223   -2.386622
H      -0.428798   -4.397300    1.067917
H       0.213466    1.302017   -4.541699
