18

C       0.118770    1.169575    0.338549
O       0.063079   -0.207669    0.033318
C       0.580180   -0.544344   -1.233751
C       2.116060   -0.721199   -1.219074
O       2.384790   -2.115375   -1.065386
C       1.176801   -2.803149   -0.796780
C       0.112776   -1.982368   -1.556089
C      -1.268271   -2.268552   -1.197076
N      -2.362525   -2.530790   -0.935484
H       1.151494    1.544704    0.390578
H      -0.431828    1.766361   -0.403844
H      -0.349674    1.297227    1.316322
H       0.249296    0.180122   -1.990015
H       2.581904   -0.381685   -2.151544
H       2.548836   -0.153090   -0.386235
H       1.273745   -3.827578   -1.162612
H       0.941933   -2.820816    0.276035
H       0.240977   -2.158037   -2.629786
