17

C      -0.051501    1.473773   -0.010527
C       1.408953    1.914053    0.125158
C       2.259688    0.903562   -0.093981
C       3.438919    0.385774    0.757210
N       2.651891   -0.494429    1.715057
C       1.617408   -0.794393    1.019723
N       0.231745   -0.864816    1.218064
C       0.010906   -0.083376   -0.073945
C       1.491733   -0.356466   -0.411382
H      -0.640582    1.834512    0.842273
H      -0.554629    1.856921   -0.909270
H       1.673963    2.862591    0.580313
H       4.192205   -0.164013    0.180918
H       3.939688    1.160713    1.340808
H      -0.146997   -0.549130    2.106285
H      -0.775413   -0.531391   -0.681022
H       1.797605   -0.994052   -1.238028
