12

N       0.031844    1.367917    0.130949
C      -0.016826    0.000232    0.033107
N      -1.140855   -0.626846    0.005767
C      -1.144252   -2.034171   -0.004000
O      -2.173563   -2.659362    0.022339
N       0.110422   -2.726871   -0.060228
C       1.175828   -2.029328   -0.036062
N       1.199411   -0.651882    0.014793
H       0.794136    1.848257   -0.323389
H      -0.872503    1.796795   -0.005361
H       2.157064   -2.502362   -0.060010
H       2.067773   -0.155690    0.136510
