18

C       0.004280    1.563263   -0.032461
C       0.007846    0.047158   -0.192961
N      -1.309140   -0.505032    0.140346
C      -1.385472   -1.956038    0.077678
C      -2.758636   -2.442265    0.613831
C      -2.922076   -2.101984    2.024625
N      -3.022496   -1.810076    3.138219
C      -1.239581   -2.415888   -1.315327
N      -1.125529   -2.801655   -2.397894
H       0.977336    1.979176   -0.307529
H      -0.761780    2.016536   -0.667328
H      -0.198870    1.850993    1.005355
H       0.228359   -0.217249   -1.233393
H       0.810041   -0.396302    0.423998
H      -1.567211   -0.215497    1.080214
H      -0.593134   -2.462426    0.660155
H      -3.555397   -1.968999    0.032320
H      -2.845429   -3.525326    0.489297
