18

C       0.284011    1.658638   -0.134720
C      -0.057950    0.172416    0.072935
C       0.551468   -0.400034    1.307761
C       0.034530   -0.869667    2.478424
C      -1.380651   -0.992677    2.942086
C       1.208459   -1.238615    3.200631
O       1.199492   -1.765260    4.437325
N       2.318701   -1.017492    2.544631
O       1.900085   -0.477260    1.323296
H       1.365802    1.800741   -0.197421
H      -0.166275    2.029467   -1.059914
H      -0.088993    2.265775    0.695455
H      -1.142523    0.037963    0.127985
H       0.288445   -0.405871   -0.792257
H      -1.627351   -2.028712    3.198232
H      -1.561869   -0.390386    3.839152
H      -2.081217   -0.662121    2.171031
H       2.117550   -1.925455    4.693665
