23

C       0.426576    1.721346   -0.189702
C       0.117057    0.230673    0.009631
C       0.714255   -0.646302   -1.108425
O       0.500144   -0.058579   -2.381174
C       2.200387   -0.816991   -0.718348
C       2.235440   -0.704041    0.828935
C       0.773258   -0.403740    1.258124
C       0.654059    0.393856    2.546637
O       1.190316   -0.404725    3.595404
H       1.501441    1.928643   -0.157514
H       0.056773    2.053675   -1.161835
H      -0.052130    2.328119    0.584858
H      -0.971610    0.108321    0.040792
H       0.216848   -1.629094   -1.064529
H       0.909450   -0.624210   -3.042730
H       2.612060   -1.762842   -1.084232
H       2.774788   -0.012892   -1.189502
H       2.609432   -1.608506    1.312265
H       2.898530    0.108962    1.142891
H       0.270103   -1.362115    1.443250
H       1.204276    1.343370    2.457794
H      -0.403099    0.641587    2.739073
H       1.177883    0.114653    4.404391
