18

C      -0.146652    1.512807    0.020477
C       0.144178    0.039188   -0.000964
C       0.466089   -0.660319   -1.309979
O       0.955637   -1.948161   -0.962535
C       1.475887   -1.915640    0.359280
C       0.785513   -0.758074    1.059196
C       1.285628   -0.267707    2.388111
O      -0.638824   -0.808373    0.859165
H       0.671046    2.078306   -0.438548
H      -1.061791    1.730935   -0.540866
H      -0.289613    1.870144    1.042508
H      -0.412138   -0.796256   -1.950755
H       1.217553   -0.075709   -1.867191
H       1.267787   -2.884643    0.826275
H       2.567023   -1.753295    0.363564
H       2.347403   -0.005657    2.332551
H       0.725002    0.608909    2.719651
H       1.171602   -1.045506    3.151127
