21

C      -0.088985    1.442728   -0.244025
C      -0.114373   -0.011458   -0.160997
C      -0.115738   -1.215976   -0.081978
C      -0.127153   -2.650736   -0.023076
C      -0.473680   -3.397537    1.264923
C      -0.694988   -2.669360    2.572555
C      -1.456969   -3.394772    0.122921
C      -2.751123   -2.609562    0.136947
O      -3.078858   -2.106596   -1.149246
H       0.670706    1.868564    0.421039
H       0.136882    1.778883   -1.262148
H      -1.055508    1.874691    0.038217
H       0.611256   -3.128760   -0.660666
H       0.072749   -4.330548    1.378214
H      -1.093140   -1.663928    2.421771
H      -1.387375   -3.220053    3.218464
H       0.252517   -2.565396    3.111747
H      -1.517809   -4.311379   -0.457529
H      -3.579904   -3.265420    0.424810
H      -2.706170   -1.799426    0.876135
H      -2.378074   -1.486046   -1.382192
