17

O       0.032229    0.000499    0.053955
C       0.093854    1.176129    0.248422
O       1.008268    1.962060   -0.361165
C       0.976634    3.348699   -0.123584
C       0.563740    4.045710    1.214766
C       1.317877    5.204868    0.513441
C       2.303787    4.144233   -0.038720
O       0.484813    5.515149   -0.618921
C       0.196473    4.203591   -1.138948
H      -0.564519    1.734589    0.937343
H      -0.496108    4.200287    1.426567
H       1.093299    3.645333    2.080508
H       1.623470    6.117887    1.017002
H       2.982011    3.744314    0.715870
H       2.826168    4.375411   -0.968492
H       0.572338    4.095365   -2.162039
H      -0.882702    4.009235   -1.126480
