19

C      -0.472798    1.194361   -0.072910
O      -0.137594   -0.171098    0.034874
C       0.834882   -0.454065    1.036362
C       0.222082   -0.476112    2.446666
C       1.455241   -1.738809    0.710258
C       1.983155   -2.791435    0.461236
C       2.585550   -4.089285    0.197052
C       2.065579   -5.176803    1.140501
O       2.753477   -6.051078    1.591591
H       0.416321    1.817572   -0.257856
H      -1.149964    1.286902   -0.925253
H      -0.984741    1.580537    0.820494
H       1.617723    0.323585    1.004273
H       0.988661   -0.714263    3.188998
H      -0.206811    0.497601    2.698391
H      -0.564504   -1.232977    2.497284
H       2.338885   -4.414579   -0.825555
H       3.677942   -4.067009    0.267907
H       0.980267   -5.100735    1.368468
