17

O      -0.036676   -0.086944    0.184750
C      -0.038098    1.121218    0.050411
N       1.061343    1.902657   -0.097055
C       2.378780    1.349226   -0.108003
C       3.537455    1.722738   -0.993499
C       3.797740    3.246007   -1.139223
N       2.736236    4.009559   -0.423625
C       3.878173    3.408611    0.322527
C       3.622024    1.893674    0.543193
H      -0.968510    1.722748    0.034689
H       0.995328    2.903685   -0.204804
H       2.303003    0.272463    0.015939
H       4.044219    0.995485   -1.615906
H       4.371546    3.706289   -1.932318
H       2.948354    4.999303   -0.545408
H       4.528958    4.024538    0.928518
H       4.202013    1.314417    1.251128
