22

C       0.533558    0.803383   -1.967039
N       0.445131   -0.252788   -0.968958
C       1.561229   -0.530481   -0.060685
C       2.881063    0.225602   -0.091199
C       3.783967   -0.281373   -1.199030
O       4.329580    0.416839   -2.013410
C       0.276841    0.047104    0.459838
C       0.208490    1.477221    0.966934
C      -0.694174   -0.882951    1.166100
H       1.083875    1.706245   -1.668925
H       1.018167    0.400863   -2.862125
H      -0.481194    1.105950   -2.244598
H       1.712287   -1.600707    0.097280
H       2.777629    1.305183   -0.201911
H       3.399929    0.035754    0.860556
H       3.915403   -1.388908   -1.212118
H       0.910978    2.152850    0.478146
H      -0.799567    1.881246    0.818878
H       0.414877    1.504978    2.042329
H      -0.476940   -0.938398    2.239036
H      -1.724190   -0.525704    1.051583
H      -0.638679   -1.888927    0.743862
