23

C      -0.183138    1.548665   -0.260828
C      -0.063702    0.068936    0.061572
O      -1.328808   -0.536980   -0.118344
C      -1.344938   -1.923872    0.180547
C      -2.786067   -2.361439    0.119337
O      -3.596056   -1.628830    0.999274
C      -3.397114   -2.804680   -1.192604
C      -3.193821   -3.792543   -0.056232
C      -2.217531   -4.943668   -0.163574
H       0.783222    2.045429   -0.133400
H      -0.513991    1.691485   -1.293386
H      -0.909181    2.029072    0.401508
H       0.680932   -0.411092   -0.595305
H       0.281921   -0.076609    1.098771
H      -0.718209   -2.480415   -0.531733
H      -0.942912   -2.092735    1.193301
H      -3.397201   -0.701124    0.819044
H      -4.406574   -2.470591   -1.402287
H      -2.749523   -2.886011   -2.060520
H      -4.100772   -4.025056    0.495917
H      -1.336401   -4.680589   -0.756476
H      -1.870871   -5.271454    0.822887
H      -2.690513   -5.803115   -0.651228
