23

C      -1.132900    0.840812   -0.311467
O      -1.245094   -0.427892   -0.915535
C      -0.089564   -0.805918   -1.614880
C       1.107507   -1.462049   -0.838722
C       0.134538   -2.654526   -0.586238
C      -0.050488   -2.278635   -2.091124
C       1.518145   -2.137101   -2.203100
C       2.117479   -1.265807   -3.318137
C       2.362097   -3.417014   -2.152328
H      -0.352576    0.861012    0.463923
H      -0.901890    1.624022   -1.050945
H      -2.096383    1.067776    0.151222
H       0.157139   -0.026284   -2.340136
H       1.778046   -0.987093   -0.118757
H       0.563688   -3.624570   -0.347853
H      -0.718031   -2.436089    0.053078
H      -0.723816   -2.744079   -2.814101
H       1.633225   -0.301155   -3.467953
H       3.175052   -1.069132   -3.107428
H       2.077549   -1.801849   -4.273354
H       2.351675   -3.909867   -3.131363
H       3.406415   -3.167529   -1.931929
H       2.038978   -4.151070   -1.415119
