17

C       0.174049    1.458311   -0.276533
C      -0.149340    0.013583    0.118857
C       0.682993   -0.492662    1.292967
C       1.085968   -1.935339    1.337747
N       2.091362   -0.908001    1.062549
C       0.465101    0.192128    2.540616
C       0.237839    0.767309    3.579690
C      -0.011258    1.412178    4.756106
N      -0.227320    1.961739    5.756981
H       1.225018    1.567562   -0.563062
H      -0.441023    1.771879   -1.124483
H      -0.018410    2.145120    0.552775
H      -1.211523   -0.075281    0.374507
H       0.025210   -0.659410   -0.729662
H       1.191342   -2.432184    2.296909
H       0.729628   -2.566237    0.527332
H       2.282456   -0.859057    0.063491
