14

O       0.030424    0.011581    0.471815
C      -0.009206    1.171888    0.120451
C      -1.297159    1.871961   -0.123417
C      -1.381154    3.009029   -0.829637
C      -0.193765    3.669675   -1.431337
O      -0.300957    4.496099   -2.312741
C       1.145758    3.238393   -0.910802
N       1.272507    3.276183    0.558218
C       1.239638    1.967599   -0.121492
H      -2.179840    1.358845    0.246153
H      -2.335775    3.469841   -1.064904
H       1.989798    3.543782   -1.521407
H       2.232874    3.501906    0.807473
H       2.149761    1.378404   -0.176546
