17

C      -0.045210    1.535035    0.059397
C       0.025311    0.017183    0.002375
C       0.711119   -0.499765   -1.272897
C       0.918707   -2.002509   -1.251375
O       0.935446   -2.695580   -2.235171
C       1.101560   -2.655181    0.155097
O       1.510025   -3.781268    0.263722
C       0.674519   -1.812581    1.355139
O       0.767252   -0.422359    1.136645
H       0.961895    1.962370    0.036020
H      -0.609431    1.925994   -0.792044
H      -0.535015    1.857070    0.981604
H      -0.996233   -0.397902    0.059280
H       0.170604   -0.227849   -2.184431
H       1.707740   -0.038364   -1.327027
H      -0.361108   -2.108917    1.606094
H       1.306884   -2.061958    2.210777
