17

O      -0.100005    1.367688   -0.034627
N       0.054123   -0.036433   -0.023745
C      -1.060406   -0.616572    0.046086
C      -2.554394   -0.334626    0.033654
N      -2.587235   -1.529169   -0.906348
C      -1.501190   -2.064206    0.013557
C      -2.219462   -2.224149    1.381190
C      -1.963299   -1.194708    2.455362
C      -3.006490   -0.921160    1.398175
H       0.811528    1.666521   -0.123664
H      -2.985917    0.601544   -0.311572
H      -3.455525   -2.058317   -0.791892
H      -0.873689   -2.874074   -0.352752
H      -2.657292   -3.183154    1.632713
H      -2.337475   -1.432575    3.446738
H      -1.034314   -0.634918    2.455115
H      -4.055211   -0.867224    1.666400
