13

C       0.017223    1.410404   -0.133898
O       1.344344    1.858459    0.180867
C       2.002225    0.768663    0.659496
C       3.295322    0.618752    1.110381
N       3.726279   -0.582806    1.543841
N       2.927274   -1.631712    1.545959
C       1.653568   -1.536489    1.114732
C       1.164700   -0.330812    0.661716
O      -0.061622    0.012754    0.184594
H      -0.708369    1.964347    0.471929
H      -0.171806    1.552236   -1.203719
H       4.011499    1.431568    1.139803
H       1.060234   -2.442754    1.147626
