20

C       0.055197    1.563637   -0.042818
C       0.049765    0.046559    0.060583
O       0.729410   -0.488455   -1.080453
C       1.188316   -1.794019   -0.755544
C       1.504734   -1.777719    0.735171
C       1.593263   -3.091430    1.470067
C       2.283320   -0.564520    1.182075
C       0.774044   -0.561046    1.253766
H       1.077278    1.950803   -0.005901
H      -0.402143    1.882206   -0.983867
H      -0.514093    2.003002    0.782293
H      -0.995179   -0.311831    0.070782
H       0.412469   -2.552427   -0.959697
H       2.051195   -2.007898   -1.396524
H       2.440032   -3.691527    1.115946
H       1.729667   -2.935189    2.544552
H       0.683750   -3.687925    1.331210
H       2.822861   -0.640983    2.120053
H       2.766322    0.050589    0.429172
H       0.279026   -0.564475    2.218561
