17

C      -0.052594    1.353300    0.042723
O      -0.051569   -0.074095    0.040314
C      -1.265618   -0.640205    0.003857
N      -2.427671   -0.025005   -0.029622
C      -3.346498   -1.047292   -0.057976
O      -4.672045   -0.782720   -0.096729
C      -2.745601   -2.271044   -0.041794
N      -1.370079   -1.988790   -0.000905
C      -0.290000   -2.950254    0.029471
H       0.996112    1.650818    0.072820
H      -0.534055    1.742119   -0.859375
H      -0.584110    1.739078    0.917641
H      -4.752771    0.178239   -0.097204
H      -3.124554   -3.276801   -0.054533
H      -0.309196   -3.585853   -0.862178
H       0.656394   -2.410554    0.058253
H      -0.361713   -3.588611    0.916457
