21

C      -0.079232    1.537493    0.090890
C      -0.004823    0.009766    0.018657
C       0.651945   -0.513320   -1.263478
C       0.761294   -2.025760   -1.348187
O      -0.462536   -2.663951   -1.780527
C       0.595378   -2.454139   -2.740801
C       0.374085   -1.230480   -3.605275
C      -0.083170   -0.145827   -2.593923
O      -1.493224   -0.128451   -2.451070
H       0.912667    1.991811   -0.016960
H      -0.723772    1.932220   -0.699216
H      -0.489686    1.863960    1.051361
H       0.560921   -0.373777    0.877666
H      -1.013332   -0.407917    0.098571
H       1.677087   -0.115836   -1.322163
H       1.333715   -2.591942   -0.617275
H       1.038449   -3.363589   -3.137623
H       1.319436   -0.955683   -4.089487
H      -0.378444   -1.371898   -4.386052
H       0.188415    0.856482   -2.932362
H      -1.736672   -1.023447   -2.177725
