15

C       0.046172    1.430652   -0.016462
O       0.025679    0.004811    0.013611
C       0.598298   -0.605373   -1.038501
C       0.694512   -1.972231   -1.217481
C       0.243316   -3.125786   -0.391649
N       1.343874   -2.051908   -2.410728
N       1.627916   -0.848680   -2.927975
N       1.168078    0.042132   -2.083078
H       1.072952    1.809527   -0.041736
H      -0.487142    1.814016   -0.892274
H      -0.451778    1.754179    0.898604
H      -0.481165   -3.755464   -0.921089
H       1.078379   -3.765438   -0.083254
H      -0.239819   -2.748141    0.511918
H       1.619140   -2.878110   -2.917966
