20

C       0.075625    1.376517    0.078557
O       0.028195   -0.029848    0.069084
C      -1.285668   -0.535217   -0.013279
C      -1.201349   -2.057916   -0.018946
C      -2.574600   -2.761498   -0.012797
C      -3.387670   -2.518974   -1.298181
C      -2.348557   -4.253301    0.146988
O      -2.730479   -4.921026    1.072104
H       1.126705    1.668176    0.141846
H      -0.358243    1.807480   -0.838026
H      -0.462840    1.798610    0.942112
H      -1.887331   -0.189630    0.845951
H      -1.779866   -0.159240   -0.924375
H      -0.619934   -2.375626   -0.893479
H      -0.630268   -2.361159    0.866035
H      -3.151753   -2.436804    0.860277
H      -3.606745   -1.457335   -1.436418
H      -2.838299   -2.864692   -2.181345
H      -4.342242   -3.052858   -1.263832
H      -1.775760   -4.713856   -0.694725
