22

C      -0.410544    1.435772   -0.164723
C      -0.009142   -0.040798   -0.070555
C       0.614522   -0.538905   -1.380249
C       0.952597   -0.293053    1.101692
N       0.303615    0.033614    2.374463
C      -0.247023   -1.034583    3.164875
C       0.952238   -0.265364    3.659083
C       2.249051   -0.984226    3.753271
O       3.049607   -0.793400    4.636095
H       0.459005    2.059341   -0.406376
H      -1.157265    1.589412   -0.950344
H      -0.824277    1.788298    0.782740
H      -0.915767   -0.631898    0.123125
H       1.538272    0.006516   -1.608282
H       0.860163   -1.605357   -1.333035
H      -0.070868   -0.390045   -2.220347
H       1.299792   -1.337519    1.059389
H       1.835782    0.350080    0.998160
H      -1.209703   -0.859515    3.637520
H      -0.074718   -2.060546    2.835984
H       0.819231    0.494115    4.425413
H       2.441255   -1.734787    2.955678
