20

C      -0.232524    1.470822   -0.228118
C      -0.142297   -0.055555   -0.152670
C       0.831928   -0.624649   -1.193240
N       0.950224   -2.078069   -1.168076
C      -0.106619   -2.891255   -1.740125
C      -0.099358   -2.856354   -3.262315
O      -1.089212   -2.892658   -3.942913
C       2.013595   -2.695227   -0.570471
O       2.162519   -3.894581   -0.471348
H       0.743758    1.936300   -0.053268
H      -0.585618    1.800286   -1.211391
H      -0.925910    1.861313    0.521686
H       0.187891   -0.368333    0.845048
H      -1.136900   -0.491742   -0.301563
H       0.526706   -0.310167   -2.199823
H       1.831130   -0.206468   -1.027198
H       0.091952   -3.924367   -1.428223
H      -1.096974   -2.599097   -1.378631
H       0.922118   -2.807016   -3.705302
H       2.745894   -1.962473   -0.180142
