14

O       0.044171   -0.025395    0.401417
C      -0.015631    1.150569    0.245880
C      -1.162691    2.218100    0.110273
O      -0.148936    3.239022   -0.011493
C       0.928258    2.297318    0.109565
C       2.211674    2.581792    0.833927
C       2.213071    2.393188   -0.662233
C      -2.022945    2.106238   -1.058770
N      -2.698920    1.995903   -1.989607
H      -1.761276    2.336151    1.020796
H       2.320406    3.591205    1.215089
H       2.611446    1.796597    1.466423
H       2.612150    1.475248   -1.079667
H       2.319289    3.275865   -1.282995
