19

O      -0.210739    1.372996    0.069406
C      -0.009141   -0.013357    0.028665
C       0.730395   -0.436247   -1.254084
C      -0.044387   -0.042224   -2.515408
C       0.708718   -0.397930   -3.807988
C      -0.026614    0.088618   -5.036497
O      -0.362328   -0.604594   -5.961329
C       0.754297   -0.469929    1.254943
O       1.117999    0.308093    2.103358
H       0.198576    1.672591    0.896844
H      -0.981156   -0.542391    0.052751
H       1.717305    0.043570   -1.259648
H       0.895689   -1.521544   -1.235789
H      -1.021937   -0.541396   -2.513384
H      -0.241925    1.034633   -2.481157
H       1.692134    0.095195   -3.796733
H       0.871315   -1.475856   -3.903061
H      -0.254050    1.181102   -5.027541
H       0.964543   -1.556563    1.329157
