22

C      -0.036907    1.427864   -0.107249
C      -0.037100   -0.066782    0.092027
N      -0.058119   -0.724660    1.177334
O      -0.010340   -0.691871   -1.103640
C      -0.006882   -2.123270   -1.086786
C       0.024870   -2.615614   -2.537779
C      -1.227385   -2.163159   -3.298906
C       1.305505   -2.156389   -3.245776
O       0.025444   -4.038489   -2.383860
H       0.854948    1.734439   -0.662378
H      -0.906016    1.729674   -0.699804
H      -0.058671    1.950225    0.850309
H      -0.076573   -0.095003    1.976146
H       0.866211   -2.488468   -0.538101
H      -0.900260   -2.493173   -0.575158
H      -1.294594   -1.072670   -3.331323
H      -1.205521   -2.533460   -4.330464
H      -2.125437   -2.555613   -2.813013
H       2.184476   -2.544090   -2.722605
H       1.328898   -2.526690   -4.277300
H       1.368184   -1.065553   -3.275471
H       0.044942   -4.427711   -3.264130
