21

C      -0.024657    1.755764   -0.274104
C      -0.279032    0.245931   -0.334854
C       0.715750   -0.480060   -1.233294
C       2.196432   -0.632090   -0.788804
O       2.260950   -0.645304    0.627805
C       2.198975   -2.051526   -1.415748
C       0.636569   -2.041665   -1.430920
C       0.027194   -2.786592   -0.270185
O      -0.945170   -3.495288   -0.355752
H       0.963132    1.967109    0.147008
H      -0.072218    2.209546   -1.270702
H      -0.768564    2.254862    0.354149
H      -0.233341   -0.168673    0.676614
H      -1.291924    0.051203   -0.709523
H       0.706242   -0.025908   -2.230639
H       2.910854    0.091540   -1.201888
H       3.145337   -0.925024    0.885267
H       2.610168   -2.065164   -2.427959
H       2.686945   -2.832894   -0.825298
H       0.146367   -2.378024   -2.346359
H       0.550894   -2.641901    0.699853
