22

C      -0.009403    1.703088    0.074464
C       0.029869    0.182067   -0.013595
C      -1.369409   -0.416724   -0.184180
C      -2.110598    0.017993   -1.444200
O      -3.276094   -0.788101   -1.548046
C       1.081995   -0.474487   -0.967015
C       1.653908   -1.153212    0.272211
C       2.063659   -0.162747    1.281225
N       0.634095   -0.517756    1.201939
H       0.977136    2.136365    0.256559
H      -0.381736    2.136591   -0.859403
H      -0.674001    2.020717    0.885228
H      -1.285254   -1.508889   -0.199719
H      -1.970626   -0.165737    0.696964
H      -2.376261    1.084423   -1.387243
H      -1.462975   -0.108181   -2.328306
H      -3.782936   -0.485648   -2.307141
H       0.632558   -1.163389   -1.684644
H       1.764881    0.192916   -1.502205
H       1.908831   -2.205326    0.350169
H       2.524262   -0.529645    2.193600
H       2.408647    0.820481    0.972650
