16

O      -0.033774    0.011357    0.208872
C      -0.074545    1.191616    0.044884
C      -1.160204    2.266661   -0.061009
C      -1.428073    2.664161    1.420610
C      -0.149196    3.380869    1.827634
C       0.417236    4.147480    0.664800
C       1.179708    2.957353    1.202148
N       0.992853    2.169189   -0.060717
C      -0.001150    3.230705   -0.500204
H      -2.056829    2.107472   -0.659905
H      -2.279377    3.351898    1.481418
H      -1.657499    1.787610    2.033931
H      -0.067263    3.811293    2.819730
H       0.666833    5.198002    0.631372
H       2.103745    2.892988    1.762398
H       0.065454    3.559361   -1.535022
