21

C      -0.011711    1.488371   -0.157265
O       1.352752    1.673165    0.269968
C       1.501265    0.268311    0.557582
C       0.084428   -0.045518    0.021754
C      -0.909360   -0.717923    0.963797
C      -2.358978   -0.780078    0.403301
C      -2.937442   -2.140560    0.868737
C      -1.697884   -2.940165    1.193836
C      -0.609511   -2.175642    1.251064
H      -0.722684    1.986783    0.516940
H      -0.176257    1.855636   -1.177290
H       2.342408   -0.176126    0.012110
H       1.639763    0.083167    1.632391
H       0.106267   -0.580689   -0.932344
H      -0.894922   -0.155217    1.911804
H      -2.968943    0.071437    0.715116
H      -2.315843   -0.762635   -0.691810
H      -3.571015   -2.032850    1.760653
H      -3.565647   -2.612729    0.105013
H      -1.725020   -4.005400    1.396798
H       0.386241   -2.523052    1.507065
