23

C      -0.156397    1.546616    0.153774
C      -0.025745    0.025359   -0.020658
C      -1.407411   -0.642520   -0.004208
C       0.742037   -0.369688   -1.303534
O       0.114630    0.132826   -2.483224
C       2.222761    0.002299   -1.287118
C       3.147130   -0.841798   -0.379313
O       3.828300   -1.405960   -1.515390
C       3.062757   -0.597467   -2.435407
H       0.813766    2.052794    0.183732
H      -0.748855    1.989446   -0.655685
H      -0.673913    1.779594    1.089236
H       0.555115   -0.363910    0.827465
H      -1.985787   -0.339956   -0.882470
H      -1.320936   -1.734012   -0.021503
H      -1.971138   -0.363880    0.891686
H       0.673816   -1.460636   -1.409778
H       0.204668    1.091817   -2.478911
H       2.345123    1.082758   -1.166346
H       3.825978   -0.270888    0.267092
H       2.650038   -1.611350    0.226832
H       2.502491   -1.202495   -3.157538
H       3.698715    0.110997   -2.980954
