19

O       0.002007    1.455320   -0.089923
C       0.023225    0.072036   -0.011508
C       0.271089   -0.755022    1.374203
C      -0.424358   -1.821412    0.502542
C      -1.528794   -2.869800    0.230399
C      -2.018923   -1.876608   -0.912173
C      -1.309136   -0.744705   -0.082952
O       0.579965   -2.047916   -0.541020
C       0.934547   -0.723686   -0.945901
H       0.907263    1.783628   -0.045690
H       1.304796   -0.921391    1.690442
H      -0.342126   -0.361328    2.184848
H      -1.195077   -3.867848   -0.060441
H      -2.259102   -2.938067    1.039548
H      -1.555594   -2.107314   -1.870074
H      -3.096832   -1.762878   -1.040430
H      -2.000619   -0.361235    0.669907
H       0.706061   -0.557481   -2.006294
H       2.003799   -0.532972   -0.776909
