18

C       0.577098    1.471726   -0.150477
C      -0.103452    0.115905    0.060518
C       0.118400   -0.875858   -1.116053
C       1.251732   -1.764218   -0.641871
C       1.801928   -2.937029   -1.320307
O       2.523499   -1.703589   -1.299720
C       1.313684   -1.638526    0.873129
O       1.985420   -2.299502    1.633316
N       0.459348   -0.620141    1.191867
H       1.639576    1.339313   -0.378395
H       0.108196    2.010163   -0.980482
H       0.494619    2.096371    0.745086
H      -1.174845    0.273730    0.227073
H      -0.785382   -1.470873   -1.278701
H       0.367920   -0.365941   -2.048429
H       2.231007   -3.732305   -0.714024
H       1.398474   -3.228592   -2.289407
H       0.420703   -0.272428    2.137805
