11

O      -0.095532   -0.008380    0.004039
C       0.033186    1.171519    0.008768
O      -1.191088    1.946493    0.029748
C      -1.125179    3.276364    0.036086
N      -0.024472    3.963325    0.024980
C       1.110793    3.195070    0.005471
N       1.199785    1.900681   -0.003038
C      -2.396642    3.916200    0.057127
C      -3.473426    4.449255    0.074887
H       2.042968    3.756502   -0.004493
H      -4.424213    4.925608    0.090577
