17

O      -0.008160    1.417102    0.042932
C      -0.008965    0.030143    0.029549
C      -0.427962   -0.748810   -1.198946
C      -1.285977   -0.778324    0.053887
C      -1.083681   -1.939542    1.029291
C       0.354163   -1.795670    1.468139
C       0.929357   -0.700937    0.942949
C       2.289897   -0.235609    1.188777
O       2.747888    0.778941    0.695727
H       0.918647    1.681847   -0.050695
H      -0.818209   -0.153232   -2.017094
H       0.129165   -1.633798   -1.492657
H      -2.246751   -0.280347    0.013934
H      -1.757765   -1.879666    1.894572
H      -1.267560   -2.918761    0.567476
H       0.852004   -2.510666    2.115761
H       2.901463   -0.862410    1.871567
