20

C      -0.027121    1.391518   -0.054227
N      -0.006049   -0.049528    0.042835
N      -0.019099   -0.794215   -1.086033
C       0.020606   -2.059904   -0.671856
C       0.016046   -3.191583   -1.649850
C       0.048084   -2.127066    0.743441
N       0.060941   -3.265774    1.593381
C       0.020082   -0.810170    1.172221
C       0.012102   -0.257194    2.556161
H       0.861663    1.835014    0.408083
H      -0.043203    1.641586   -1.114557
H      -0.917107    1.811758    0.427345
H       0.846232   -3.884473   -1.468281
H      -0.910466   -3.777254   -1.597744
H       0.108512   -2.802939   -2.666249
H      -0.289472   -4.083577    1.107835
H       0.997656   -3.491382    1.914251
H       0.964737    0.214030    2.830180
H      -0.773134    0.495029    2.693521
H      -0.172928   -1.074688    3.257581
