13

O       0.011056   -0.009645   -0.351935
C      -0.004551    1.144183   -0.059976
C      -1.105156    2.147953    0.350919
C      -0.006014    3.223123    0.542379
O       0.342345    3.451427    1.902817
C       1.487318    2.789330    2.233892
O       1.995309    2.808047    3.304474
O       1.974959    2.102450    1.156777
C       1.101220    2.246292    0.050717
H      -1.813277    2.357235   -0.456757
H      -1.664701    1.891964    1.254272
H      -0.141967    4.179119    0.038909
H       1.671383    2.465730   -0.853651
