16

O       0.147268    1.416213   -0.225571
C       0.020967    0.009676   -0.049088
C       0.635095   -0.541030    1.246139
C      -0.250894   -1.287309    1.930375
C      -1.532443   -1.304943    1.207323
C      -1.379115   -0.529789    0.079348
N      -2.546157   -0.542409   -0.621521
C      -3.461514   -1.317104    0.064979
C      -2.858618   -1.812522    1.206873
H      -0.239347    1.829485    0.555006
H       0.538551   -0.425134   -0.915067
H       1.658649   -0.323825    1.521303
H      -0.057820   -1.796471    2.866957
H      -2.736121   -0.039236   -1.471163
H      -4.464742   -1.441903   -0.310238
H      -3.330297   -2.458380    1.931681
