16

O      -0.038112    1.425276   -0.046840
C       0.011085    0.046877   -0.032622
C      -1.136352   -0.955924    0.120890
C      -0.603333   -1.775732   -1.054882
C       0.666466   -0.848977   -1.103704
N       1.913683   -1.479137   -0.676161
C       1.920158   -1.892180    0.520171
O       0.931352   -1.786636    1.449751
C      -0.063433   -0.804667    1.178859
H       0.796857    1.766659    0.294001
H      -2.175997   -0.781404    0.370477
H      -0.406686   -2.834989   -0.871976
H      -1.221316   -1.671703   -1.949333
H       0.810254   -0.356663   -2.065045
H       2.776045   -2.417215    0.938803
H      -0.379174   -0.332060    2.101381
