14

C       0.004726    1.495139    0.101387
C      -0.002124    0.011167   -0.035285
C      -0.056235   -0.819032   -1.133087
N      -0.037457   -2.136515   -0.767055
C       0.028074   -2.133092    0.554064
N       0.051394   -0.845403    1.037246
C       0.071113   -3.253674    1.413283
C       0.109112   -4.188017    2.171889
H       0.917183    1.860687    0.587848
H      -0.050739    1.956267   -0.887210
H      -0.848279    1.859619    0.686458
H      -0.107966   -0.525563   -2.171376
H       0.099395   -0.587663    2.009506
H       0.141917   -5.023344    2.826937
