18

C      -0.009650    1.510661   -0.122534
C      -0.053114    0.018634   -0.014302
O       0.216724   -0.720207   -1.220842
C      -0.361211   -1.857759   -0.533278
C       0.632151   -2.233621    0.583350
C      -0.277435   -2.578121    1.782422
N      -0.708625   -1.134965    1.782462
C       0.639055   -0.773301    1.150897
C      -1.225472   -0.910486    0.390389
H       0.999570    1.845312   -0.385865
H      -0.700764    1.864947   -0.892624
H      -0.285077    1.966574    0.832978
H      -0.754627   -2.624609   -1.197955
H       1.523640   -2.794414    0.304037
H      -1.081359   -3.309450    1.641360
H       0.265667   -2.803161    2.704275
H       1.438513   -0.401277    1.789900
H      -2.289541   -0.751025    0.226077
