16

C      -0.056210    1.362628    0.125199
N      -0.012747   -0.084624    0.026615
C       0.547798   -0.608256   -1.012071
C       1.169800    0.022310   -2.149464
N       1.726151   -0.647757   -3.132095
N       1.701687   -1.956069   -3.047667
N       1.164303   -2.727422   -2.076345
C       0.592511   -2.077896   -1.093695
N      -0.010894   -2.749024   -0.090120
H       0.947224    1.816114    0.124427
H      -0.620897    1.823367   -0.700023
H      -0.547027    1.646196    1.059767
H       1.208169    1.099702   -2.244745
H       2.132417   -2.461222   -3.803720
H       0.136778   -3.737754    0.011372
H      -0.288096   -2.177920    0.694943
