22

C      -0.291080    1.130188    1.074857
C       0.414748   -0.106216    0.554940
C       0.604429   -0.260332   -0.967722
C       2.125063   -0.229992   -0.656040
C       2.903784    0.946538   -1.226832
O       1.853330   -0.050941    0.764397
C       2.852052   -1.539343   -0.904183
C       3.915441   -1.989457    0.022573
N       2.619154   -2.697612   -0.033739
H       0.091572    2.034545    0.591822
H      -1.367661    1.061921    0.882839
H      -0.142462    1.229709    2.154730
H      -0.001872   -1.002074    1.035029
H       0.236985   -1.192956   -1.398090
H       0.242968    0.583015   -1.560495
H       2.365233    1.884878   -1.067976
H       3.883296    1.022944   -0.745536
H       3.060397    0.816238   -2.303488
H       2.938981   -1.792329   -1.960194
H       4.767285   -2.550138   -0.350977
H       4.111068   -1.370397    0.893594
H       2.073095   -2.378456    0.765523
