16

C      -0.149351    1.554098   -0.035154
C       0.015098    0.053970   -0.013563
C       1.333624   -0.591676   -0.240511
O       2.412055    0.240754   -0.454283
C       0.710581   -0.639006    1.192504
C       1.328882    0.149133    2.218707
C       1.868727    0.793253    3.078083
C       0.165622   -1.906313    1.607411
N      -0.274703   -2.934566    1.903505
H       0.745993    2.057645    0.329395
H      -0.336086    1.889116   -1.060280
H      -0.999055    1.856832    0.583183
H      -0.837684   -0.512115   -0.375557
H       1.358626   -1.553128   -0.751725
H       3.185521   -0.125048   -0.010105
H       2.329974    1.364317    3.845696
