17

O      -0.096161    1.248379    0.539890
C       0.004914   -0.005878   -0.122977
C      -1.350723   -0.658915   -0.007440
C      -1.663525   -2.118856   -0.067788
C      -0.561081   -2.956058    0.589837
C      -0.855954   -2.188310    1.911359
O      -0.548934   -2.385755    3.051841
C      -1.890905   -1.310518    1.256788
O      -3.058993   -0.893560    1.844022
H       0.760892    1.682907    0.497451
H       0.261083    0.124752   -1.186727
H       0.786986   -0.630704    0.329018
H      -2.136952   -0.048849   -0.450844
H      -2.434688   -2.513378   -0.715906
H      -0.830274   -4.009389    0.711870
H       0.447775   -2.893170    0.175087
H      -2.974569    0.041575    2.061091
