16

C      -0.127056    1.401924    0.079664
O       0.021543   -0.011206    0.037080
C       0.656136   -0.528334   -1.116331
C      -0.048039   -0.111722   -2.453911
O      -1.431245   -0.320893   -2.417430
C       2.078571   -0.161162   -1.197540
C       3.223882    0.187394   -1.292423
C       0.517947   -1.999478   -0.997399
N       0.363814   -3.143764   -0.982000
H       0.824644    1.914509   -0.108385
H      -0.885219    1.748493   -0.631628
H      -0.459832    1.632138    1.093224
H       0.112166    0.958531   -2.602602
H       0.453829   -0.644466   -3.273148
H      -1.600857   -1.267559   -2.342410
H       4.243914    0.477802   -1.363206
