18

C      -0.041511    1.562184   -0.210022
C       1.421157    2.064507    0.001073
N       2.198330    0.842211   -0.247690
C       3.199579    0.319421    0.732369
C       2.179175    0.043651    1.884334
O       2.534001   -1.359930    2.022677
C       2.632017   -1.140184    0.593040
C       1.412055   -0.164962    0.502912
C      -0.045489    0.035561    0.176427
H      -0.751663    2.139844    0.386253
H      -0.326826    1.676562   -1.258350
H       1.691935    2.864043   -0.693520
H       1.544842    2.450518    1.026187
H       4.241235    0.636633    0.784924
H       1.933940    0.594982    2.792049
H       2.941638   -1.956282   -0.057826
H      -0.699698   -0.188154    1.021811
H      -0.362205   -0.581507   -0.668323
