19

C       0.199163    1.397185    0.265329
C      -0.032051   -0.111349    0.234336
O      -0.033118   -0.664405    1.549860
C      -1.321781   -0.483215   -0.535326
C      -1.438072   -1.992229   -0.707178
O      -0.935246   -2.554144   -1.653864
C      -2.163103   -2.754707    0.393887
C      -2.225968   -4.249246    0.159462
O      -3.218237   -4.909522    0.329780
H       1.108163    1.625700    0.828450
H       0.304215    1.802758   -0.745186
H      -0.643427    1.911394    0.745166
H       0.810778   -0.597681   -0.269579
H      -0.605082   -0.117046    2.100035
H      -2.188780   -0.074624   -0.001901
H      -1.281252   -0.039282   -1.534156
H      -1.600821   -2.555109    1.319173
H      -3.173746   -2.360798    0.546425
H      -1.272093   -4.706851   -0.171810
