25

C      -1.125024   -0.165009   -4.260618
C      -0.716988   -1.093151   -3.128645
O      -1.877837   -1.496505   -2.434893
C      -1.604609   -2.369286   -1.353635
C      -2.897361   -2.666037   -0.641369
C      -3.904833   -3.658555   -1.186461
C      -3.689030   -4.406208   -2.485383
C      -3.153350   -3.970591    0.091660
C      -2.133024   -5.085058    0.208892
H      -0.244990    0.168441   -4.818858
H      -1.801486   -0.677024   -4.950954
H      -1.641346    0.715080   -3.866746
H      -0.182328   -1.973951   -3.525675
H      -0.019601   -0.581938   -2.442136
H      -1.117152   -3.284146   -1.723826
H      -0.890774   -1.894104   -0.657908
H      -3.321383   -1.777747   -0.180420
H      -4.941625   -3.364596   -1.041011
H      -2.654368   -4.728355   -2.623749
H      -4.317440   -5.302883   -2.528166
H      -3.946799   -3.771523   -3.339335
H      -3.741454   -3.854419    0.999232
H      -1.564265   -5.243383   -0.710095
H      -1.413193   -4.876274    1.008416
H      -2.627110   -6.032632    0.451344
