21

C      -2.039494    0.477238    1.803199
C      -1.180575   -0.489298    0.977604
C       0.099670   -0.879319    1.691593
C       0.191830   -2.044350    2.661908
C      -0.982266   -2.940192    2.999229
C       0.918102   -2.104077    1.331496
C       0.531499   -3.057982    0.219723
H      -1.484373    1.391301    2.041719
H      -2.944585    0.769317    1.261003
H      -2.345455    0.021860    2.750717
H      -1.774523   -1.373467    0.726184
H      -0.926475   -0.018757    0.018203
H       0.689543   -0.009184    1.975781
H       0.836654   -1.867002    3.519908
H      -1.645226   -3.113879    2.148478
H      -0.636476   -3.920893    3.345761
H      -1.589074   -2.504839    3.801325
H       1.994585   -1.961893    1.399066
H      -0.547904   -3.206209    0.141225
H       0.879779   -2.686546   -0.750747
H       0.985421   -4.043190    0.376244
