17

N      -0.065964    1.459317    0.047305
C      -0.010396   -0.000301    0.008767
C       0.640506   -0.578113    1.300418
C      -0.004211   -1.964662    1.513488
C      -1.384302   -1.811185    0.905447
O      -2.038354   -0.590167    1.290090
C      -1.404632   -0.642858    0.019563
C       0.697738   -0.507546   -1.192291
N       1.245697   -0.865744   -2.146179
H       0.874702    1.840282    0.103143
H      -0.471435    1.821050   -0.811658
H       1.729057   -0.618436    1.230570
H       0.365298    0.100292    2.109164
H       0.539203   -2.748556    0.973654
H      -0.034620   -2.248242    2.569346
H      -2.038670   -2.665907    0.759391
H      -2.047650   -0.547207   -0.851720
