20

C      -0.052088    1.572274    0.004611
C      -0.012574    0.033244    0.018948
C       0.620147   -0.489942   -1.279886
N       0.600001   -1.934726   -1.418249
C       1.339830   -2.825492   -0.693045
O       1.238740   -4.027235   -0.847309
C       2.309438   -2.204770    0.315708
C       1.654342   -1.363217    1.390422
C       0.680578   -0.460050    1.266026
H       0.959097    1.989870   -0.053731
H      -0.624644    1.945730   -0.850915
H      -0.518535    1.960095    0.915078
H      -1.053472   -0.325266    0.046238
H       0.081887   -0.073371   -2.136047
H       1.650757   -0.119328   -1.354945
H      -0.065937   -2.358240   -2.046369
H       2.835092   -3.044881    0.771253
H       3.065272   -1.621488   -0.228818
H       2.025777   -1.554582    2.394277
H       0.326843    0.013719    2.181105
