19

C      -0.189759    1.673475   -0.267247
O      -0.031822    0.263381   -0.353840
C      -1.159945   -0.506521   -0.025094
C      -2.360111   -0.272600   -0.943190
C      -0.786747   -2.013073    0.154118
C      -1.608498   -2.080692    1.490126
O      -1.112895   -2.750056    2.608740
C      -1.496442   -0.554594    1.492790
O      -1.308683    0.202635    2.407118
H       0.803609    2.100289   -0.422620
H      -0.860134    2.064134   -1.044512
H      -0.560439    1.975810    0.717918
H      -2.060981   -0.441659   -1.982619
H      -3.176775   -0.960310   -0.704897
H      -2.747443    0.745691   -0.852404
H      -1.097603   -2.690270   -0.641817
H       0.283054   -2.109740    0.346328
H      -2.630442   -2.422897    1.284777
H      -0.719246   -2.083745    3.186679
