14

O      -1.446072    0.094779   -0.424933
C      -0.285011   -0.474454   -0.153459
C       0.702321   -1.099513   -0.903912
N       0.804102   -1.350828   -2.280111
C      -0.089621   -1.019295   -3.232670
N      -1.194880   -0.404686   -2.985868
N       1.700633   -1.503908   -0.080669
N       1.415081   -1.177827    1.146625
N       0.210497   -0.553133    1.104401
H      -1.546102    0.002035   -1.434400
H       1.647940   -1.831437   -2.549999
H       0.221589   -1.326219   -4.233644
H      -1.737126   -0.241247   -3.825615
H      -0.216242   -0.208164    1.949075
