14

N      -0.097330   -1.227757   -0.138617
C      -0.075062   -0.073009   -0.087356
C      -0.037067    1.376636   -0.012948
C       0.040753    2.036978    1.378349
C       1.556652    1.740851    1.577494
C       1.784228    3.225442    1.840874
N       0.699993    3.299658    0.767026
C       1.337660    2.070078    0.071190
H      -0.745931    1.839263   -0.704535
H      -0.741005    2.120306    2.133930
H       2.019047    0.851654    2.013748
H       1.468124    3.635069    2.805161
H       2.735212    3.667410    1.528049
H       2.084457    2.192418   -0.713870
