21

C       0.000084    1.621333   -0.230118
C       1.567333    1.443896    0.009546
C       1.176866    0.224616    0.915590
C       1.212244   -1.339582    1.003131
C      -0.388773   -1.213860    0.930742
O      -0.940764   -1.014525    2.201608
C      -0.594540    0.254098    2.749974
C       0.823852    0.698748    2.355965
C      -0.057626    0.078150    0.065972
H      -0.453463    2.258423    0.530946
H      -0.324997    1.957040   -1.217642
H       2.066709    1.150197   -0.917845
H       2.109818    2.275811    0.468892
H       1.622025   -1.832699    0.118760
H       1.604104   -1.802087    1.914370
H      -0.947843   -2.028153    0.463597
H      -1.319754    0.999118    2.392115
H      -0.714726    0.169326    3.833891
H       1.568767    0.282388    3.043893
H       0.885624    1.787614    2.450346
H       0.263986   -0.370617   -0.882993
