15

C       0.060294    1.436911    0.090240
N      -0.047662    0.010582   -0.116850
C      -1.230920   -0.674826   -0.039775
N      -1.143461   -2.015652   -0.002422
C      -2.278094   -2.703036    0.036741
C      -3.507700   -2.051058    0.043470
F      -4.632075   -2.765507    0.082014
N      -3.621071   -0.744035    0.019528
C      -2.490117   -0.041943   -0.019669
H       1.112379    1.721230    0.031679
H      -0.475288    1.990541   -0.690019
H      -0.331110    1.760684    1.066256
H       0.764196   -0.560315    0.055271
H      -2.219969   -3.787183    0.067227
H      -2.585124    1.038520   -0.036447
