20

C      -0.021461    1.552374    0.058954
C       0.032154    0.019733    0.034313
C       0.778789   -0.551094   -1.202072
C       1.928557   -1.318525   -0.615420
C       1.955848   -1.327012    0.728510
C       2.988094   -2.011637    1.575206
C       0.804037   -0.550930    1.224969
N       0.375925   -0.297922    2.403518
O       1.167732   -0.866970    3.419396
H       0.987536    1.976714    0.009740
H      -0.592656    1.936385   -0.792777
H      -0.490090    1.902454    0.982042
H      -0.993386   -0.362127    0.065904
H       0.135498   -1.196514   -1.813919
H       1.125930    0.247637   -1.871134
H       2.666840   -1.818634   -1.234790
H       3.735717   -2.499826    0.943182
H       3.494523   -1.301559    2.234863
H       2.532537   -2.762542    2.226520
H       0.703073   -0.582296    4.212746
