19

N       0.014984    1.411050   -0.021595
C      -0.017777    0.038614    0.057354
C      -1.191768   -0.641280    0.145695
C      -1.376013   -2.082485    0.301210
O      -2.467110   -2.601436    0.117794
C      -0.207241   -2.956501    0.801301
N       0.633776   -2.336723    1.822361
C       1.667561   -1.437674    1.335428
C       1.333030   -0.632462    0.049394
H       0.814845    1.841227   -0.456885
H      -0.857520    1.888166   -0.191013
H      -2.124691   -0.092407    0.038456
H      -0.669540   -3.866024    1.196629
H       0.422634   -3.270149   -0.040512
H       0.040044   -1.848918    2.482189
H       1.918258   -0.744631    2.144745
H       2.579350   -2.011076    1.117926
H       1.376115   -1.309145   -0.809897
H       2.124958    0.109161   -0.103843
