18

O      -0.073628    1.342937    0.119597
C       0.044179   -0.034438    0.040777
C      -0.396936   -0.893067   -1.126704
C       0.533510   -2.092095   -1.144671
N       0.830015   -2.224895    0.291587
C      -0.471645   -2.058591    1.055153
C       0.343557   -1.277716    2.116465
C       1.100270   -0.842721    0.840783
C      -1.138258   -0.956184    0.201908
H       0.597124    1.735929   -0.449537
H      -0.858724   -0.454699   -2.002843
H       0.064534   -3.009024   -1.517168
H       1.460049   -1.920527   -1.703732
H      -1.042149   -2.958735    1.286587
H      -0.170149   -0.505226    2.690839
H       0.935821   -1.931302    2.758185
H       2.131333   -0.483494    0.845328
H      -2.151588   -0.602783    0.330493
