16

O      -0.147220    1.430786   -0.223297
C      -0.032987    0.034156    0.039699
C      -1.431072   -0.568100    0.007352
C      -1.711065   -0.769945   -1.510938
C      -0.356195   -1.260384   -2.074355
C       0.685758   -0.586440   -1.180785
O       1.861909   -0.475742   -1.406847
C      -2.823279   -1.672349   -1.781946
N      -3.699092   -2.397680   -1.988877
H       0.743748    1.769582   -0.374049
H       0.509507   -0.159128    0.972953
H      -1.433458   -1.537292    0.515645
H      -2.168951    0.076991    0.486594
H      -1.946828    0.205691   -1.948089
H      -0.258089   -2.345943   -1.950032
H      -0.192982   -1.035451   -3.129576
