18

O      -0.032211    0.205122   -0.742917
C      -0.026432    1.281370   -0.214426
C      -1.105052    2.138424    0.498638
C      -0.029402    3.237521    0.640500
C      -0.216012    4.697877    0.519562
N       0.231537    4.089220    1.793295
C       1.018487    2.333851    0.010270
C       2.429956    2.076844    0.500423
C       2.211251    2.652438   -0.859719
H      -1.980245    2.379178   -0.111156
H      -1.439569    1.696912    1.443641
H       0.531686    5.309564    0.021184
H      -1.231539    5.080414    0.448796
H      -0.540200    4.046691    2.454723
H       2.768287    2.734977    1.293353
H       2.736812    1.039851    0.583018
H       2.359632    2.013114   -1.723705
H       2.433371    3.702567   -1.019344
