17

C      -0.092441    1.585509    0.012122
C       0.031601    0.069040   -0.055899
C      -1.322511   -0.625618    0.085208
C       0.813503   -0.431169   -1.289657
C       1.779560   -1.454360   -0.728910
O       2.435115   -2.273723   -1.306032
C       1.790769   -1.243939    0.802759
O       2.508200   -1.764249    1.603745
O       0.842414   -0.333409    1.103530
H       0.894481    2.055351   -0.019931
H      -0.680239    1.953749   -0.834293
H      -0.588661    1.888713    0.937895
H      -1.995356   -0.313536   -0.719336
H      -1.212309   -1.713586    0.037294
H      -1.781256   -0.369807    1.043628
H       0.179077   -0.858118   -2.068588
H       1.400553    0.376242   -1.743296
