16

C      -0.120480    1.528861   -0.102011
C      -0.002403    0.026217    0.011154
C       1.315036   -0.674188   -0.214931
C       0.722799   -0.641532    1.164951
N       1.353785    0.141268    2.192396
N       2.376484    0.965777    2.023137
N       2.603741    1.471745    3.199728
N       1.730290    0.950972    4.076481
N       0.944942    0.123807    3.453240
H       0.784974    2.033618    0.243843
H      -0.283717    1.815103   -1.145701
H      -0.965216    1.902640    0.485412
H      -0.888479   -0.521296   -0.298912
H       1.336413   -1.633349   -0.719271
H       2.184202   -0.049115   -0.383013
H       0.300990   -1.538734    1.597655
