19

C      -0.076230    1.700142    0.030213
C       0.025763    0.190297   -0.042098
C       0.782402   -0.569161   -1.170512
C       2.198236    0.021760   -1.068898
C       2.294874    0.022458    0.496764
N       0.973939   -0.540432    0.915948
C       0.895499   -1.687390   -0.087286
C      -0.271143   -2.541244    0.093847
N      -1.179142   -3.247641    0.206126
H       0.856977    2.217250   -0.204309
H      -0.836373    2.050088   -0.675686
H      -0.389395    2.003557    1.034380
H      -0.966953   -0.240298    0.112221
H       0.362786   -0.751700   -2.160464
H       2.949862   -0.613733   -1.544393
H       2.271702    1.017884   -1.511191
H       3.095393   -0.615064    0.878432
H       2.421190    1.016585    0.927299
H       1.791451   -2.314749   -0.108980
