20

C       0.008137    1.583449    0.051396
C       0.088401    0.055486    0.079845
C       0.623544   -0.519121   -1.238327
N       0.708692   -1.966826   -1.246894
C       1.692061   -2.743506   -0.612094
C       1.488657   -4.052406   -0.790445
C       0.247567   -4.224879   -1.625010
C      -0.214432   -2.782799   -1.885395
O      -1.176328   -2.397205   -2.513741
H       0.993129    2.031773   -0.121082
H      -0.657512    1.929783   -0.746561
H      -0.374328    1.976331    0.997772
H       0.732236   -0.269757    0.906856
H      -0.902702   -0.372281    0.268866
H      -0.044041   -0.250885   -2.062344
H       1.614043   -0.101052   -1.459318
H       2.483880   -2.241574   -0.073051
H       2.106320   -4.850416   -0.409130
H       0.422826   -4.730060   -2.581972
H      -0.553244   -4.779629   -1.122247
