21

C       0.022194    1.507502    0.073084
C       0.036554   -0.002163    0.058048
C       0.458820   -0.727778   -1.237936
C       0.309795   -2.217202   -0.776553
C      -0.161019   -1.977772    0.667645
C       0.792032   -0.833651    1.134382
O       2.182067   -0.949496    0.937304
C      -1.212008   -0.843927    0.461122
O      -1.819112   -0.332077    1.630209
H       1.038471    1.903893   -0.027394
H      -0.574842    1.907713   -0.754491
H      -0.403574    1.883997    1.007780
H      -0.200633   -0.473124   -2.073452
H       1.483840   -0.480867   -1.521014
H      -0.425479   -2.773346   -1.365604
H       1.259232   -2.754812   -0.812706
H      -0.377487   -2.848821    1.289988
H       0.551277   -0.489634    2.143117
H       2.563941   -1.383706    1.705457
H      -1.955172   -1.013738   -0.331053
H      -2.420528   -1.001284    1.970975
