20

C       0.383684    1.375109   -0.039919
C      -0.000505   -0.048640    0.198607
C      -1.358191   -0.729528   -0.049535
C      -0.999940   -1.760796    1.075732
C       0.345594   -1.035327    1.249684
O       0.995656   -1.072365   -0.032969
C       1.213770   -0.967200    2.450547
C       2.369070   -1.895664    2.574874
N       2.588405   -0.460822    2.325065
H       1.338026    1.609300    0.438111
H       0.476155    1.577185   -1.113274
H      -0.379116    2.048993    0.363135
H      -2.211957   -0.098809    0.210595
H      -1.493752   -1.129730   -1.057068
H      -1.651613   -1.673649    1.948708
H      -0.922130   -2.810224    0.782002
H       0.701740   -0.653826    3.358185
H       2.676451   -2.246264    3.555728
H       2.542357   -2.590814    1.758222
H       2.779362   -0.343863    1.331006
