23

C       0.352489    1.524562    0.174886
C      -0.013743    0.037006    0.077754
C       0.576809   -0.760538    1.257524
C      -1.528454   -0.127820    0.117950
O      -2.330314    0.758323   -0.036760
C       0.527530   -0.542336   -1.251963
C       0.191992   -1.988881   -1.729409
C       0.176417   -1.450391   -3.185852
C       0.002352   -0.015958   -2.618291
H       1.438525    1.653311    0.124417
H      -0.104639    2.096007   -0.635996
H       0.000092    1.954404    1.117179
H       0.231737   -0.365372    2.218823
H       0.297644   -1.818257    1.206719
H       1.669824   -0.702533    1.244129
H      -1.874545   -1.170125    0.310914
H       1.618646   -0.429924   -1.221516
H       0.903619   -2.780252   -1.482053
H      -0.804595   -2.313096   -1.417247
H       1.146664   -1.578032   -3.674347
H      -0.600192   -1.827757   -3.854482
H      -1.051651    0.272584   -2.561459
H       0.556579    0.795378   -3.095654
