15

C       0.187788    1.630461    0.224002
C      -0.087141    0.145582   -0.067174
C       0.570803   -0.331942   -1.317697
C       0.043248   -0.779301   -2.499863
O       1.059145   -1.085676   -3.328462
N       2.250418   -0.811334   -2.616096
N       1.938008   -0.382674   -1.473574
C      -1.281148   -0.951851   -2.934922
C      -2.422592   -1.094217   -3.288490
H       1.262251    1.815475    0.304579
H      -0.206669    2.266590   -0.573961
H      -0.284203    1.928539    1.164395
H       0.269796   -0.462169    0.772637
H      -1.163572   -0.032447   -0.152900
H      -3.428733   -1.221525   -3.605680
