17

C      -0.016891    1.492139    0.063401
C      -0.000699    0.003657   -0.046738
C      -0.038551   -0.799476   -1.171965
C       0.001607   -2.138133   -0.694501
C       0.062365   -2.120780    0.697972
N       0.060360   -0.797478    1.084482
C       0.101918   -3.456398    1.178837
C       0.063522   -4.250529    0.049575
N       0.002853   -3.458174   -1.083213
H       0.883744    1.882414    0.555447
H      -0.067233    1.938550   -0.932342
H      -0.881264    1.857437    0.633474
H      -0.088110   -0.441500   -2.188633
H       0.096501   -0.450634    2.025968
H       0.151471   -3.811230    2.196100
H       0.074928   -5.325373   -0.036560
H      -0.033360   -3.804065   -2.024344
