20

C       0.180653    1.494634   -0.030661
N       0.053620    0.045173    0.050638
C      -1.077904   -0.717578    0.712137
C      -0.107654   -1.890824    0.387460
O      -0.054656   -2.948572   -0.147447
C       0.777340   -0.805965    1.069111
C      -0.389668   -0.665564    2.129551
C      -0.534573    0.611516    2.959560
C      -0.596977   -1.877886    3.046441
H       0.394122    2.027123    0.903508
H       0.994196    1.721594   -0.728877
H      -0.739631    1.903047   -0.459701
H      -2.121166   -0.565678    0.435819
H       1.857417   -0.760296    1.207206
H      -0.645771    1.518938    2.372592
H      -1.424115    0.528880    3.594150
H       0.324764    0.737317    3.627777
H       0.114707   -1.848180    3.879099
H      -1.604290   -1.864872    3.476707
H      -0.465558   -2.832757    2.530378
