20

C       0.136803    1.538121   -0.089717
C      -0.051668    0.054968    0.208852
O       0.149141   -0.128148    1.600456
C      -1.442439   -0.447949   -0.215795
C      -1.567863   -1.971446   -0.146331
N      -1.249521   -2.580898    1.194630
C      -2.582221   -3.245012    1.296410
C      -2.990046   -2.548803   -0.014114
O      -3.995993   -2.462480   -0.649239
H       1.104892    1.871586    0.293983
H       0.101679    1.732335   -1.166244
H      -0.643449    2.128560    0.401386
H       0.707232   -0.512710   -0.363419
H      -0.283078   -0.964027    1.841720
H      -2.186371    0.019050    0.441091
H      -1.668078   -0.134598   -1.241322
H      -1.011004   -2.436536   -0.971296
H      -0.488021   -3.247906    1.144761
H      -2.570476   -4.338857    1.219436
H      -3.158102   -2.961642    2.183322
