19

C      -0.226704    1.501648    0.039143
C      -0.098196   -0.008198    0.115732
O      -0.193240   -0.610373    1.159343
C       0.176384   -0.724057   -1.208806
C       0.053929   -2.227174   -1.090365
C      -1.160745   -2.957581   -1.547177
C       0.154133   -3.162218   -2.296618
C       0.271275   -2.628433   -3.670145
O       0.942354   -3.122888   -4.542719
H       0.607739    1.939354   -0.519237
H      -1.143540    1.766810   -0.500763
H      -0.267026    1.923128    1.044056
H      -0.488589   -0.310284   -1.975790
H       1.191059   -0.432423   -1.519003
H       0.528312   -2.617037   -0.196420
H      -1.534612   -3.791648   -0.965376
H      -1.929929   -2.391053   -2.064718
H       0.684745   -4.096029   -2.146015
H      -0.333105   -1.711494   -3.867595
