14

C      -0.028708    1.406982   -0.006805
O       0.017097   -0.020439    0.024109
C       0.640974   -0.589490    1.066996
N       1.184546    0.154914    2.016002
C       1.784557   -0.508620    3.015345
C       1.835620   -1.891195    3.057309
N       1.281637   -2.642186    2.090388
C       0.687879   -1.998783    1.101079
H       0.978847    1.831731   -0.031311
H      -0.570168    1.660608   -0.918698
H      -0.551166    1.802143    0.869005
H       2.234174    0.094525    3.799873
H       2.325092   -2.413623    3.873106
H       0.230134   -2.577161    0.303545
