17

O       0.162407    1.429538   -0.033621
C      -0.014990    0.048369   -0.006796
C      -0.465024   -0.705882    1.230627
O       0.069295   -1.947452    1.576907
C      -1.190498    0.112089    2.285284
O      -2.117467    0.918851    1.548237
C      -2.558843    0.172630    0.402994
C      -1.356423   -0.657209   -0.001053
O      -1.562255   -1.793512   -0.770541
H      -0.572076    1.820500    0.460284
H       0.738441   -0.456662   -0.604788
H       1.020197   -1.857547    1.698517
H      -1.702349   -0.566296    2.983743
H      -0.557896    0.799198    2.856057
H      -3.398198   -0.493966    0.648407
H      -2.889482    0.901644   -0.342212
H      -1.190122   -2.535864   -0.274625
