19

C      -0.091007    1.529791    0.173702
C       1.469890    1.636725    0.046617
C       1.510313    0.109680   -0.175145
O       0.909470   -0.474203    0.995209
C       0.042311    0.016455   -0.034490
C       2.497466   -0.716226   -0.924417
C       2.948944   -0.228768   -2.323478
O       4.327188   -0.165255   -1.913141
C       3.996631   -0.549989   -0.563682
H      -0.530819    1.827422    1.128186
H      -0.612073    2.034411   -0.643302
H       1.779998    2.219371   -0.823785
H       2.012816    1.983693    0.928504
H      -0.669725   -0.686130   -0.453992
H       2.164180   -1.755672   -0.911370
H       2.793567   -0.936785   -3.146133
H       2.563276    0.753745   -2.625837
H       4.214614    0.248433    0.157285
H       4.518368   -1.462526   -0.253957
