14

C       0.313874    1.460264    0.079583
C       0.085302   -0.014033    0.068807
N      -0.087689   -0.693586   -1.033481
O      -0.262379   -1.997802   -0.656623
N      -0.194661   -2.134307    0.695549
C       0.014766   -0.934991    1.163059
C       0.120432   -0.690080    2.641978
C       1.345900    0.022932    3.009948
N       2.306479    0.602009    3.285317
H       1.266150    1.702720    0.560749
H       0.323586    1.842413   -0.942118
H      -0.475793    1.975171    0.636991
H      -0.736788   -0.102788    2.993855
H       0.087126   -1.651725    3.162137
