19

C      -0.187913    1.525856    0.074803
C       0.026673    0.007315   -0.011372
C       0.829079   -0.409167   -1.257045
C       2.282325   -0.002525   -1.142877
C       2.880679   -0.162386    0.164378
C       2.088299   -0.419880    1.231131
N       0.719909   -0.519853    1.169866
N       2.852961    0.394183   -2.226526
O       4.215395    0.693014   -2.012330
H       0.767649    2.055686    0.118198
H      -0.737777    1.883747   -0.801627
H      -0.767692    1.786967    0.966409
H      -0.952232   -0.483478   -0.055800
H       0.778499   -1.501794   -1.347547
H       0.388485    0.018688   -2.159978
H       3.951881   -0.095491    0.279060
H       2.511718   -0.584105    2.217478
H       0.230275   -0.416978    2.045011
H       4.501402    0.946546   -2.895246
