16

O       0.113716    1.316490    0.019039
C       0.003303   -0.074918    0.074435
C      -1.440041   -0.508262    0.210852
O      -2.335401    0.306264    0.251915
C      -1.691526   -2.024565    0.257573
O      -0.789537   -2.802118    0.022791
N      -2.951080   -2.381557    0.660531
C      -4.223625   -2.065717    0.050976
C      -3.728394   -3.482913    0.147156
H      -0.790316    1.658092    0.091668
H       0.420530   -0.555758   -0.823389
H       0.566103   -0.497261    0.922639
H      -4.996541   -1.714547    0.727615
H      -4.209383   -1.583684   -0.921696
H      -3.359180   -3.965731   -0.753612
H      -4.153912   -4.149191    0.891400
