17

C      -0.129059    1.459736    0.041348
C       0.112736   -0.037433    0.035743
C       0.736241   -0.618202   -1.238786
C       1.411324   -1.909251   -0.737446
C       1.605895   -1.634501    0.788924
O       1.079164   -0.346431    1.052202
C       0.933555   -2.656998    1.618028
N       0.407394   -3.459794    2.261756
H       0.800765    1.998148   -0.165700
H      -0.866249    1.726635   -0.721824
H      -0.508131    1.785149    1.013579
H      -0.826512   -0.568142    0.262044
H      -0.000859   -0.807201   -2.022554
H       1.479788    0.083333   -1.630694
H       0.773261   -2.781680   -0.890593
H       2.367053   -2.106442   -1.225467
H       2.662885   -1.620715    1.073146
