21

C      -0.092795    1.536043   -0.023885
C      -0.000121    0.008897   -0.011617
C       0.915091   -0.539583   -1.150659
C       1.988369   -1.319565   -0.330758
O       2.119313   -0.482466    0.822699
C       0.748543   -0.571526    1.256976
C       0.545691    0.118295    2.586492
C       0.515334   -2.083982    1.216046
C       1.294137   -2.550641    0.242659
H       0.898922    1.983669    0.098586
H      -0.504245    1.889493   -0.975240
H      -0.740240    1.912292    0.774587
H      -1.007511   -0.413798   -0.074020
H       0.389425   -1.170648   -1.871101
H       1.386506    0.283018   -1.695686
H       2.952833   -1.461818   -0.817403
H       0.849641    1.166593    2.539018
H      -0.507587    0.078734    2.882463
H       1.139030   -0.375336    3.361092
H      -0.216941   -2.610376    1.814206
H       1.354894   -3.553197   -0.159104
