19

C       0.250383    1.728630    0.163825
C       1.575117    1.945077   -0.597106
C       2.166855    0.516258   -0.600949
O       1.016279   -0.305597   -0.781619
C      -0.009957    0.200213    0.045101
O      -0.085273   -0.502907    1.260106
C       0.916987   -0.324909    2.243500
C       2.357975   -0.134604    1.845233
C       2.903035    0.215079    0.680649
H       0.323577    2.027953    1.211538
H      -0.574708    2.291764   -0.276341
H       1.385029    2.262124   -1.626590
H       2.231429    2.679574   -0.125827
H       2.820750    0.339963   -1.459428
H      -0.958873   -0.035386   -0.442300
H       0.652048    0.520270    2.906170
H       0.846221   -1.220555    2.872648
H       3.024699   -0.261215    2.697972
H       3.981125    0.357955    0.642676
