15

O       0.074308    1.286235   -0.253818
C       0.079888   -0.103153   -0.060638
C       0.117666   -0.600949    1.378208
N       0.926172   -0.452237    2.323552
O      -1.096291   -1.249112    1.298342
C      -1.298485   -0.755008   -0.055553
C      -2.603151   -0.218959   -0.511101
C      -2.051188   -1.525618   -1.076392
H       0.831268    1.646631    0.222254
H       0.806964   -0.610319   -0.710210
H       0.597371   -0.896790    3.182240
H      -3.436884   -0.289198    0.178580
H      -2.588447    0.671363   -1.129737
H      -1.672929   -1.540004   -2.093308
H      -2.524780   -2.445870   -0.752531
