16

O      -0.117244    1.386401    0.135783
N       0.078452   -0.004613    0.143060
C      -1.004321   -0.619749   -0.070270
C      -2.487195   -0.206796   -0.285557
C      -2.657067   -1.680225   -0.696493
C      -3.133353   -3.151041   -0.797876
C      -1.618839   -3.021607   -1.252268
O      -1.995549   -1.843862   -2.027991
C      -1.333416   -2.114048   -0.023130
H       0.773054    1.718654    0.294676
H      -2.966041    0.053741    0.663639
H      -2.711241    0.546955   -1.041694
H      -3.355678   -3.669790    0.137705
H      -3.827502   -3.394908   -1.603062
H      -1.001311   -3.779729   -1.739963
H      -1.342845   -2.562076    0.972782
