14

C       0.046039    1.499090   -0.001813
C      -0.078621    0.021097    0.063222
C      -1.111842   -0.864931   -0.046355
N      -2.480406   -1.011092   -0.250129
C      -2.655558   -2.300678   -0.203689
N      -1.499910   -3.050321    0.018198
C      -0.487160   -2.126971    0.122476
N       0.805972   -2.087832    0.320660
O       1.054976   -0.690031    0.279498
H       0.719238    1.802936   -0.810308
H      -0.936355    1.940612   -0.179171
H       0.449211    1.902415    0.933046
H      -3.608911   -2.797723   -0.323087
H      -1.437068   -4.051298    0.085057
