18

C      -0.033842    1.469910   -0.022066
C       0.018147   -0.032439   -0.064598
C       0.571941   -0.953031   -1.177899
C       0.070713   -1.934637   -0.102412
C       0.518902   -1.004728    1.070846
C      -0.861277   -1.048767    1.762197
C      -1.159374   -1.016716    0.249378
O      -2.374561   -0.939826   -0.406091
H       0.969042    1.902382   -0.108776
H      -0.640400    1.861207   -0.845981
H      -0.473897    1.828112    0.915145
H       0.030775   -0.946793   -2.128898
H       1.653243   -0.918749   -1.349002
H       0.089183   -3.025870   -0.090481
H       1.507772   -0.993958    1.525129
H      -1.109066   -1.971848    2.297978
H      -1.155999   -0.171900    2.347432
H      -2.883179   -1.732789   -0.204719
