20

N       0.429520    0.753796    0.745384
C       0.222069    0.032846   -0.395551
O       1.010695    0.050763   -1.323940
C      -1.043917   -0.808670   -0.405434
C      -1.589526   -1.216946   -1.795689
C      -1.796552   -2.664778   -1.280812
C      -0.899070   -2.338909   -0.049840
C       0.514959   -2.908729   -0.134133
O       0.524520   -4.313199    0.079298
H       1.290375    1.268148    0.837385
H      -0.194634    0.708527    1.531118
H      -1.812191   -0.348212    0.223190
H      -2.470406   -0.680702   -2.154602
H      -0.795733   -1.138570   -2.541033
H      -2.831749   -2.873230   -0.999145
H      -1.457613   -3.472638   -1.938437
H      -1.321829   -2.619934    0.918762
H       0.984243   -2.638575   -1.090175
H       1.138569   -2.483479    0.659788
H       0.056249   -4.723156   -0.654847
