15

N      -0.185169    1.138347    0.715720
C       0.029049    0.085879    0.022503
N       1.265616   -0.469350   -0.242502
C       1.602319   -1.453278   -1.177291
C       0.838116   -2.481257   -1.545819
N      -0.448419   -2.753444   -1.073729
C      -1.444135   -1.868539   -0.725026
O      -2.599656   -2.225416   -0.619055
N      -1.097659   -0.526497   -0.544799
H       0.680616    1.564697    1.039408
H       2.033181    0.059650    0.136604
H       2.583985   -1.339437   -1.619917
H       1.210136   -3.179507   -2.284835
H      -0.826288   -3.670819   -1.252072
H      -1.923534    0.002916   -0.296521
