15

N      -0.000517    1.352818    0.012799
C      -0.087429   -0.038750   -0.004871
C      -1.195585   -0.842438   -0.013010
N      -2.526117   -0.415376   -0.068026
C      -0.714552   -2.186071   -0.039134
C       0.654356   -2.112516   -0.041193
O       1.054230   -0.807210   -0.034622
C       1.644648   -3.109250   -0.045114
C       2.485612   -3.972626   -0.049718
H       0.621365    1.692725    0.739890
H       0.311472    1.743739   -0.872060
H      -2.600708    0.567148    0.169101
H      -3.142778   -0.960722    0.520564
H      -1.298181   -3.093078   -0.053424
H       3.226370   -4.733027   -0.054810
