18

C      -0.017293   -1.175071   -0.031121
C      -0.032212    0.027779   -0.003402
C       0.005631    1.447126    0.043834
C      -0.694320    2.475625    0.895793
C       0.611601    3.249490    1.108649
C       1.257009    2.388378   -0.022363
C       1.105090    3.085782   -1.374152
C      -0.432436    3.272129   -1.465289
N      -1.040557    2.306159   -0.519719
H      -0.019808   -2.236282   -0.058660
H      -1.491502    2.335939    1.617857
H       0.594939    4.335310    0.965341
H       1.038476    3.025707    2.089069
H       2.234627    1.957739    0.186443
H       1.647316    4.035405   -1.419726
H       1.472951    2.447430   -2.184638
H      -0.747977    4.285469   -1.199079
H      -0.816552    3.059053   -2.466013
