19

C       0.038825    1.448440    0.060356
C      -0.004277   -0.038809    0.001805
C      -0.018470   -0.894348   -1.027824
C      -0.051350   -2.272197   -0.358020
C      -1.106063   -2.017978    0.768634
C      -0.030373   -0.977256    1.222286
C       1.049912   -2.046028    0.763519
C       1.311478   -3.148561    1.667417
C       1.552354   -4.061651    2.413716
H       0.926198    1.803643    0.600193
H       0.055099    1.885530   -0.942206
H      -0.830575    1.854636    0.593488
H       0.003190   -0.696785   -2.090557
H      -0.052717   -3.168889   -0.975847
H      -2.077153   -1.626245    0.459102
H      -1.217132   -2.856240    1.460847
H      -0.010879   -0.544459    2.222342
H       1.986987   -1.617447    0.397885
H       1.761945   -4.867900    3.071969
