17

C      -0.038711    1.545695    0.111482
C      -0.105157    0.062280   -0.057087
C       0.403880   -0.710701   -1.304904
C      -0.476217   -1.851768   -0.813861
C      -0.869656   -3.092642   -1.474114
O      -0.424298   -3.481167   -2.529868
C      -0.426247   -1.720284    0.758196
O       0.504197   -0.698962    1.047494
C      -1.371013   -0.889253    0.000770
H       1.006981    1.870246    0.136340
H      -0.534937    2.047499   -0.724356
H      -0.517967    1.854634    1.044412
H       0.016884   -0.289496   -2.235600
H       1.484332   -0.863487   -1.368072
H      -1.633826   -3.686718   -0.918249
H      -0.541153   -2.558296    1.432615
H      -2.443189   -0.748967    0.000768
