21

C      -0.086938    1.559354   -0.144471
C      -0.044320    0.038190    0.027702
N      -1.360591   -0.575850    0.024908
C      -2.065292   -0.949537    1.156028
C      -3.315166   -1.356033    0.771457
C      -3.387851   -1.239512   -0.648410
C      -2.169414   -0.754431   -1.077186
N      -1.714779   -0.382061   -2.351519
C      -2.675008   -0.541619   -3.433796
H       0.926580    1.972981   -0.123752
H      -0.551703    1.818543   -1.098574
H      -0.666214    2.019927    0.660966
H       0.569435   -0.411664   -0.762034
H       0.432311   -0.228239    0.975718
H      -1.596272   -0.899698    2.125816
H      -4.091997   -1.718820    1.426966
H      -4.226165   -1.493863   -1.276752
H      -0.831064   -0.821865   -2.584201
H      -3.540456    0.100296   -3.243704
H      -2.211440   -0.223547   -4.371042
H      -3.041037   -1.573630   -3.555433
