19

C       0.256038    1.040115   -0.755996
C      -0.191719   -0.246472   -0.058582
C       0.816971   -0.605559    1.056082
C       0.482889   -1.854284    1.737951
N       0.187698   -2.840318    2.264245
N      -1.510327   -0.083684    0.559578
C      -2.626915    0.137904   -0.365686
C      -2.799614   -0.885415   -1.405723
C      -2.906115   -1.744786   -2.240372
H       1.278487    0.935906   -1.131468
H      -0.381190    1.269059   -1.613737
H       0.219261    1.886776   -0.062794
H      -0.183142   -1.065214   -0.797008
H       1.821007   -0.697765    0.629726
H       0.841282    0.201697    1.796683
H      -1.715866   -0.916037    1.105692
H      -3.540285    0.201527    0.236322
H      -2.511098    1.120102   -0.837370
H      -3.015141   -2.502145   -2.977007
