16

O      -0.544372    0.568057    0.608422
C       0.227117    0.878130   -0.260722
C       1.349254    1.896869   -0.073825
C       1.319617    2.953126   -1.132463
C       1.008315    4.250493   -1.057649
C       1.126951    4.903569   -2.410596
N       1.546913    3.800684   -3.244175
C       1.666965    2.620551   -2.553788
O       1.985348    1.535003   -2.999770
H       0.183942    0.432017   -1.275398
H       1.276665    2.315516    0.932138
H       2.291501    1.337923   -0.165741
H       0.714418    4.803671   -0.174894
H       0.168548    5.332617   -2.737748
H       1.861466    5.721901   -2.402347
H       1.701087    3.858331   -4.236124
