16

O      -0.514788    1.551613    0.242072
C       0.059075    0.262938    0.277137
C      -0.929131   -0.787060   -0.231335
N      -1.365193   -0.385301   -1.561999
C      -2.182887   -1.144971   -2.169505
N      -2.788987   -2.349811   -1.842641
N      -3.608337   -2.801034   -2.840647
N      -3.564388   -1.963391   -3.787268
N      -2.726624   -0.956817   -3.429011
H      -0.918743    1.616342   -0.634029
H       0.974627    0.213104   -0.334879
H       0.335947    0.054862    1.316125
H      -0.442703   -1.778018   -0.233028
H      -1.780988   -0.836825    0.467814
H      -2.699504   -2.878628   -0.993803
H      -2.549616   -0.190519   -4.054740
