16

N      -0.085204   -1.152357    0.126309
C      -0.045899   -0.000156    0.049023
C       0.039545    1.456330   -0.051869
C       1.470402    1.944890   -0.108285
C       2.604199    1.667997   -1.118070
C       3.264332    2.627664   -0.101485
C       1.939980    3.419680    0.123858
O       1.964522    3.306027    1.576273
C       2.468400    2.023653    1.094813
H      -0.516177    1.780189   -0.939748
H      -0.449469    1.906811    0.820560
H       2.988866    0.645682   -1.147698
H       2.460226    2.053262   -2.131303
H       4.274546    3.031664   -0.071245
H       1.585750    4.346293   -0.327789
H       2.751060    1.260004    1.818249
