21

C       0.068059    1.603154   -0.302911
C      -0.067607    0.128076    0.001562
C      -1.263807   -0.471997   -0.068543
C      -1.498798   -1.941097    0.184000
C      -1.082519   -2.733932   -1.031817
C       0.159608   -3.155554   -1.248994
C       1.322247   -3.051334   -0.286173
C       1.708548   -1.740235    0.367580
C       1.182683   -0.507865    0.454142
H       0.769435    1.773852   -1.129106
H      -0.892591    2.046765   -0.576067
H       0.464191    2.151975    0.561153
H      -2.122603    0.119066   -0.378709
H      -0.911413   -2.259033    1.053434
H      -2.553233   -2.121010    0.416105
H      -1.835905   -2.882802   -1.801980
H       0.377589   -3.666897   -2.183516
H       1.193235   -3.788796    0.524924
H       2.222965   -3.400724   -0.807901
H       2.671465   -1.845808    0.869566
H       1.825602    0.202817    0.976845
