17

N       0.038230    0.569993    0.810411
C       0.526748   -0.686315    0.235662
C      -0.324867   -1.791488    0.703734
N      -0.989333   -2.670952    1.049144
C       0.646837   -0.675614   -1.304267
C       1.841092    0.085047   -1.852146
O       1.816337    1.461635   -1.497303
C      -0.016261   -1.670888   -2.159640
O      -0.583043   -0.366151   -1.975634
H       0.668960    1.307893    0.508184
H      -0.870178    0.775131    0.401094
H       1.528984   -0.867891    0.644728
H       2.770969   -0.319293   -1.438299
H       1.873167   -0.040997   -2.942586
H       1.048276    1.847896   -1.934274
H       0.381941   -1.867491   -3.154166
H      -0.573925   -2.485334   -1.705333
