16

O       0.065057   -0.097230   -0.145139
C      -0.034567    1.111627   -0.028648
C      -1.286372    1.840780   -0.021764
C      -1.324173    3.198875   -0.017907
N      -0.232359    4.007254    0.011402
C       1.079183    3.482257    0.301478
C       1.463616    3.194410    1.775117
O       1.790831    1.828711    1.458541
C       1.250246    1.950046    0.118909
H      -2.206701    1.275592   -0.092796
H      -2.271884    3.726870   -0.075294
H      -0.372950    5.000105    0.089323
H       1.830618    4.071507   -0.228108
H       2.322780    3.742135    2.178598
H       0.619045    3.271864    2.472292
H       1.974260    1.618380   -0.632470
