27

C       2.207057    2.555851   -0.810642
C       1.135302    1.489373   -0.550948
C       1.319303    0.250656   -1.408940
C       2.056044   -1.005257   -0.958433
C       2.699810   -1.177273    0.405521
C       4.194279   -0.830805    0.404453
C       0.556920   -1.044086   -1.193321
C      -0.397621   -1.182776   -0.019429
C       0.070755   -1.774321   -2.433792
H       3.209144    2.177774   -0.584319
H       2.203747    2.869203   -1.860564
H       2.037187    3.446472   -0.197164
H       1.132396    1.234018    0.513502
H       0.146277    1.921504   -0.755412
H       1.471181    0.503609   -2.457916
H       2.638138   -1.485782   -1.744351
H       2.190340   -0.570215    1.160629
H       2.576309   -2.219595    0.729595
H       4.638136   -0.986180    1.393020
H       4.742497   -1.456425   -0.308705
H       4.361531    0.213260    0.121093
H      -0.056684   -0.662100    0.877140
H      -1.385933   -0.782767   -0.276362
H      -0.533417   -2.238470    0.244854
H      -0.047068   -2.847982   -2.241215
H      -0.902532   -1.390396   -2.763989
H       0.772609   -1.660906   -3.266100
