17

C       0.026369    1.512370   -0.087182
C       0.014095    0.019179   -0.041454
C       0.048047   -0.870127   -1.085512
N       0.005506   -2.131506   -0.517595
C       0.084482   -3.390259   -1.218051
C       1.484905   -3.674952   -1.763764
O       1.693859   -4.412828   -2.686944
C      -0.041362   -1.938799    0.833391
N      -0.042640   -0.667866    1.154585
H       0.883329    1.914473    0.463577
H       0.080568    1.875082   -1.117141
H      -0.875678    1.927095    0.375199
H       0.083637   -0.734274   -2.154491
H      -0.170333   -4.195503   -0.518594
H      -0.633602   -3.436041   -2.042395
H       2.300534   -3.148639   -1.219477
H      -0.081161   -2.770817    1.522331
