17

O      -0.026621    1.368363    0.048702
C      -0.006497   -0.017934   -0.041785
C       0.913074   -0.688301   -1.017147
C       0.313568   -1.714924   -1.622773
C      -1.113960   -1.895746   -1.148476
C      -1.277562   -0.805280   -0.090086
C      -0.430974   -0.835352    1.194770
C       0.306104   -2.015666    1.694124
O       0.407918   -2.286929    2.869193
H       0.710916    1.649883    0.601174
H       1.932022   -0.354701   -1.175864
H       0.776864   -2.379528   -2.342835
H      -1.830105   -1.756250   -1.968507
H      -1.294043   -2.903279   -0.754462
H      -2.230561   -0.301630    0.012951
H      -0.847520   -0.227446    1.992353
H       0.786289   -2.650047    0.920951
