17

C       0.034908    1.518204   -0.040237
C       0.044585    0.001299    0.121083
N      -1.302932   -0.547784    0.092605
C      -2.208532   -0.281443    1.234826
C      -2.642385   -1.746682    1.171468
O      -3.507500   -2.414060    1.633413
C      -1.441960   -2.014516    0.204363
C      -1.673568   -2.739503   -1.036924
N      -1.870169   -3.317787   -2.017940
H       1.056966    1.907398   -0.037221
H      -0.445262    1.801711   -0.980652
H      -0.506991    2.002378    0.779146
H       0.602316   -0.456429   -0.703434
H       0.568229   -0.275473    1.057590
H      -1.696787   -0.061305    2.187287
H      -2.980439    0.473977    1.060934
H      -0.627029   -2.503690    0.766918
