12

O      -0.041577   -0.013663   -0.229516
C       0.000747    1.187400   -0.044679
C      -1.224848    1.982681    0.190634
N      -1.319487    3.247722    0.398027
O      -0.126473    3.965148    0.403539
C       1.042166    3.348900    0.201603
C       1.208822    2.018866   -0.022486
C       2.495296    1.462526   -0.225586
C       3.582924    0.978164   -0.399432
H      -2.174899    1.454506    0.193062
H       1.860494    4.059226    0.239724
H       4.538725    0.541866   -0.553727
