17

C      -0.195075    1.536296    0.206837
C       0.032535    0.047533    0.056180
O       1.134671   -0.454124    0.073717
C      -1.212810   -0.819038   -0.111373
C      -1.698368   -0.905889   -1.592007
C      -1.030191   -2.312132   -1.601112
N      -0.947460   -2.268769   -0.119428
C      -1.812340   -3.420964   -2.148272
N      -2.434275   -4.283163   -2.601252
H       0.748107    2.073452    0.102835
H      -0.924097    1.903928   -0.522782
H      -0.612991    1.736395    1.200798
H      -1.975462   -0.505527    0.611663
H      -2.783154   -0.947112   -1.683037
H      -1.295272   -0.180328   -2.299043
H      -0.054576   -2.295067   -2.101321
H      -0.017494   -2.487569    0.229525
