17

O      -0.043773    1.398451    0.018487
C      -0.092111    0.006225    0.075080
C      -0.454720   -0.777801    1.311146
C      -1.557513   -0.105370    2.083829
C      -2.831592   -0.893797    2.049316
C      -2.455666   -0.106546    0.809714
C      -3.231555    0.974218    0.295914
C      -3.847274    1.899471   -0.170116
C      -1.351930   -0.803876    0.037953
H      -0.938625    1.736441   -0.100729
H       0.730777   -0.433754   -0.485778
H       0.173575   -1.576084    1.691035
H      -1.428322    0.735964    2.754015
H      -2.804498   -1.979249    2.010454
H      -3.656971   -0.479395    2.619719
H      -4.406984    2.704909   -0.577058
H      -1.515848   -1.613305   -0.665258
