13

O       0.111980    1.350271    0.176605
C       0.075172   -0.002849    0.050916
C       0.067649   -0.768908   -1.089608
N       0.024791   -2.094661   -0.679485
C       0.005988   -2.174255    0.669060
C       0.036172   -0.882539    1.180824
C       0.028744   -0.525899    2.591374
O      -0.005603   -1.327578    3.504475
H       0.134216    1.750916   -0.697924
H       0.088222   -0.501689   -2.133114
H       0.010096   -2.882175   -1.303924
H      -0.027149   -3.114441    1.193979
H       0.056922    0.565957    2.791858
