13

O       0.021308    0.016476   -0.400856
C       0.015643    1.165713   -0.072680
C      -1.090984    2.154068    0.361738
C       0.006165    3.234881    0.517330
O       0.572412    3.259581    1.841280
C       1.671025    2.409096    1.446671
C       1.107309    2.246438    0.014261
H      -1.786638    2.348053   -0.462973
H      -1.658315    1.906834    1.261902
H      -0.178971    4.231087    0.112747
H       2.624241    2.949601    1.478781
H       1.749136    1.502358    2.056810
H       1.779972    2.382567   -0.830953
