20

C      -0.059413    1.519404   -0.107685
C      -0.137192    0.000147   -0.277772
C       0.971947   -0.557894   -1.180121
C       0.915310   -2.065645   -1.310139
C       0.046921   -2.824164   -2.271643
N      -0.070796   -2.167732   -3.577060
C       1.327803   -2.131905   -3.753395
O       2.007414   -1.664465   -4.621887
C       1.558887   -2.876592   -2.444687
H       0.895109    1.818702    0.339025
H      -0.145688    2.031544   -1.072422
H      -0.860637    1.889744    0.539050
H      -0.081978   -0.483304    0.706601
H      -1.114077   -0.277593   -0.694626
H       0.912713   -0.088935   -2.168959
H       1.952246   -0.276434   -0.774443
H       1.023154   -2.586160   -0.357694
H      -0.622106   -3.632640   -2.007028
H      -0.670386   -1.371369   -3.762327
H       2.251237   -3.686690   -2.265318
