16

O      -0.099262   -0.035328   -0.218826
C      -0.009210    1.108477    0.152762
C       1.245743    1.935386    0.023037
C       1.178139    3.217159   -0.898070
C       1.522911    4.079101    0.317471
N       0.454654    3.846327    1.300646
C       1.587344    2.872749    1.209778
C       2.419920    2.580897    2.321263
C       3.125670    2.306231    3.256889
H      -0.865715    1.641820    0.614438
H       2.080438    1.288247   -0.247850
H       1.956361    3.195390   -1.661718
H       0.212606    3.438283   -1.358914
H       2.124922    4.978428    0.348462
H       0.641209    4.432655    2.113873
H       3.749887    2.066760    4.082041
