21

C      -0.213433    0.625116   -2.006477
C       0.253394   -0.314736   -0.913067
C       1.456891   -0.021297   -0.025361
C       2.286063    1.235871   -0.178228
C       0.046265   -0.020244    0.550313
N      -0.680318    1.153301    0.974601
C      -0.582803    1.462746    2.391575
C       0.763496    1.816420    2.896201
N       1.821491    2.105429    3.262121
H      -0.049212    1.679742   -1.769477
H       0.320532    0.423491   -2.941197
H      -1.283772    0.496632   -2.199292
H       0.124219   -1.360527   -1.181520
H       2.051259   -0.893029    0.238284
H       1.676633    2.131327   -0.332680
H       2.887888    1.412821    0.717299
H       2.962581    1.156028   -1.036429
H      -0.218124   -0.870274    1.175286
H      -0.451174    1.966081    0.416922
H      -1.256770    2.294496    2.622519
H      -0.940360    0.600436    2.966249
