21

C      -0.335516    1.421739    0.157961
C       0.084699   -0.046405    0.006001
C       0.781023   -0.317737   -1.335629
C       0.935821   -0.518564    1.202905
C       2.301609    0.141079    1.350664
O       0.168577   -0.425490    2.450444
C       0.133967   -1.847817    2.663991
C       0.942344   -2.048799    1.379816
O       1.381347   -2.977517    0.770669
H       0.519878    2.098678    0.060899
H      -1.055488    1.690667   -0.621543
H      -0.802690    1.593396    1.131069
H      -0.831239   -0.652440    0.036923
H       1.648382    0.335922   -1.475439
H       1.121192   -1.354896   -1.407732
H       0.090968   -0.126888   -2.163410
H       2.196678    1.223639    1.462759
H       2.813162   -0.241198    2.238071
H       2.928514   -0.062581    0.478625
H       0.638327   -2.159233    3.587853
H      -0.880857   -2.265845    2.650763
