20

C      -0.015160    1.570556   -0.041634
C      -0.062000    0.045663   -0.039235
N       0.796409   -0.490843   -1.079947
C       0.863087   -1.850413   -1.354792
C       0.389166   -2.821651   -0.458407
C       0.518757   -4.176312   -0.755290
C       1.108215   -4.599554   -1.941732
C       1.573944   -3.637809   -2.839375
C       1.455715   -2.286085   -2.554199
H       1.007944    1.928928    0.106911
H      -0.384409    1.975242   -0.991214
H      -0.642377    1.975220    0.757018
H       0.284742   -0.325816    0.933305
H      -1.104449   -0.298160   -0.151408
H       0.866480    0.096909   -1.897313
H      -0.079370   -2.522639    0.471078
H       0.145621   -4.907285   -0.044501
H       1.202347   -5.655749   -2.166789
H       2.034885   -3.943573   -3.773515
H       1.827079   -1.546579   -3.258708
