12

C      -0.033720    1.430554   -0.024968
N      -0.008574   -0.029355   -0.000714
N      -0.051938   -0.641632   -1.166756
N      -0.032827   -1.925706   -1.210909
C       0.033264   -2.562129    0.001346
F       0.048755   -3.863970   -0.123966
N       0.079310   -2.066689    1.185267
C       0.060585   -0.690959    1.271103
O       0.095828   -0.034100    2.278561
H       0.867783    1.816720    0.454855
H      -0.086313    1.740868   -1.067087
H      -0.900075    1.787634    0.535384
