20

C       0.097926    1.507439   -0.026228
C       0.008949   -0.011976    0.022211
O       0.642890   -0.485596   -1.164070
C       0.709074   -1.872728   -1.315130
C       2.078294   -2.490606   -1.272388
C       1.121626   -2.692458   -0.118055
C       1.260165   -1.947277    1.180422
N       2.123385   -0.750276    1.206884
C       0.661155   -0.591202    1.268809
H       1.146723    1.815286    0.000012
H      -0.353816    1.884115   -0.947611
H      -0.423682    1.952935    0.826638
H      -1.051076   -0.322134    0.027678
H      -0.035726   -2.277174   -1.999448
H       2.290283   -3.335793   -1.917672
H       2.896866   -1.801242   -1.103560
H       0.665719   -3.672321   -0.015601
H       1.242303   -2.567102    2.073123
H       2.529955   -0.640316    2.131521
H       0.207778   -0.279494    2.207669
