15

O       0.020083    0.012700   -0.395440
C       0.030267    1.193640   -0.113871
N       1.097582    1.870597    0.390708
C       2.544677    1.556054    0.119718
C       2.473557    2.659482   -0.995544
C       1.524592    3.284468    0.084668
C       2.519947    3.506667    1.237095
C       3.198181    2.356493    1.259102
H      -0.869473    1.841561   -0.173023
H       2.805557    0.518818   -0.068351
H       3.391992    3.198312   -1.237027
H       1.944310    2.323475   -1.891602
H       0.754436    4.022290   -0.133613
H       2.603956    4.389828    1.852253
H       4.000389    2.022300    1.899538
