20

O       0.295193   -0.060579   -0.292883
C       0.110533    1.114215   -0.101009
C      -1.103217    2.042084    0.143789
C      -0.052070    3.182748    0.264233
N       0.977316    2.175993   -0.013105
C       2.421841    2.229884   -0.065207
C       3.083268    2.330107    1.295209
C       3.218065    1.089627    2.140008
C       4.439922    1.706020    1.504739
H      -1.789430    2.121272   -0.701071
H      -1.664149    1.818146    1.052714
H      -0.117982    3.970764   -0.494265
H       0.022660    3.640581    1.256715
H       2.740974    1.307547   -0.562792
H       2.726726    3.069368   -0.704084
H       2.895307    3.260967    1.824035
H       3.095690    1.181273    3.213434
H       2.838715    0.161740    1.724836
H       4.893235    1.186411    0.666642
H       5.150288    2.221677    2.141157
