21

C      -0.265152    1.503287    0.039028
C       0.118769    0.018714   -0.033509
C       0.826820   -0.461185    1.203744
C       2.234839   -0.048008    1.648704
C       2.342132   -1.384357    2.451392
C       1.844260   -1.169511    3.879535
O       0.517486   -0.647994    3.716061
C       0.096701   -1.013406    2.417790
C       1.070921   -1.893464    1.715283
H       0.620570    2.134178    0.168212
H      -0.772961    1.825122   -0.875351
H      -0.933418    1.694860    0.884731
H      -0.782171   -0.587899   -0.193285
H       0.758780   -0.152646   -0.910104
H       2.925742   -0.030764    0.800691
H       2.339673    0.881471    2.219813
H       3.269286   -1.949241    2.364313
H       1.817296   -2.111848    4.448482
H       2.434320   -0.435676    4.438830
H      -0.972611   -1.175988    2.342955
H       0.881269   -2.864356    1.275523
