23

C      -0.130807    1.514174   -0.072798
C       0.015652   -0.009086   -0.035376
C       0.989027   -0.508376   -1.164918
C       2.337432   -0.628616   -0.460811
C       2.135031   -0.717506    0.848424
C       2.671747   -0.333798    2.207162
C       1.251870    0.303175    2.453530
C       0.691292   -0.564011    1.256950
C       0.006469   -1.837862    1.764376
H       0.844450    2.010051   -0.013872
H      -0.604429    1.830942   -1.008077
H      -0.746720    1.881290    0.754888
H      -0.978661   -0.451457   -0.165271
H       0.655732   -1.462912   -1.595500
H       1.028310    0.203455   -1.998368
H       3.286773   -0.554248   -0.979323
H       2.853669   -1.184888    2.871511
H       3.542761    0.325033    2.239284
H       0.800041    0.127079    3.433773
H       1.253995    1.373884    2.244237
H      -0.979415   -1.604443    2.183780
H      -0.135978   -2.559701    0.952976
H       0.592388   -2.330027    2.548022
