18

C       0.088339    1.518071   -0.121371
C       0.025667   -0.012692   -0.028045
C       0.628440   -0.503815    1.310179
O       1.951186   -0.063041    1.496045
O      -1.305259   -0.553641   -0.028191
C      -2.227367   -0.121469   -0.917373
N      -3.358853   -0.678689   -0.949126
C       0.780687   -0.632957   -1.206656
O       1.945313   -0.946026   -1.183131
H       1.082864    1.831973    0.201996
H      -0.085873    1.902544   -1.130128
H      -0.655554    1.951904    0.553871
H       0.024307   -0.093830    2.124983
H       0.538925   -1.598498    1.346008
H       2.470442   -0.454327    0.780319
H      -1.898443    0.712230   -1.546067
H      -3.944781   -0.235582   -1.653847
H       0.165395   -0.785763   -2.120914
