20

C       0.095651    1.506303   -0.321369
C      -0.139752    0.006028   -0.291773
O       0.933821   -0.625176   -0.982038
C       0.817892   -2.014071   -1.163694
C       1.100770   -2.850774    0.060738
C      -0.173990   -2.480042   -2.218487
C       1.311531   -2.421772   -2.524879
O       1.808133   -1.440916   -3.376482
H       1.050033    1.755771    0.150873
H       0.115903    1.874431   -1.351420
H      -0.703290    2.026036    0.215701
H      -0.183843   -0.354733    0.745842
H      -1.095107   -0.252073   -0.770807
H       0.328932   -2.724069    0.828372
H       1.130501   -3.912253   -0.201417
H       2.067427   -2.577140    0.496068
H      -0.656505   -3.443833   -2.091593
H      -0.783219   -1.720339   -2.696666
H       1.855074   -3.358489   -2.615077
H       1.747933   -0.611836   -2.881259
