20

C       0.167041    1.535764    0.176231
C      -0.066504    0.033679   -0.051327
C       0.686134   -0.485227   -1.254307
N       0.259376   -0.054799   -2.450886
C       0.912950   -0.484980   -3.530772
C       2.003260   -1.346948   -3.488747
C       2.459608   -1.799948   -2.250312
C       3.651785   -2.714392   -2.136052
C       1.773099   -1.351549   -1.121730
H       1.221008    1.743295    0.389055
H      -0.115031    2.098769   -0.717306
H      -0.427637    1.900462    1.019314
H       0.224796   -0.532421    0.839936
H      -1.136118   -0.141047   -0.213112
H       0.541210   -0.125282   -4.488212
H       2.485336   -1.662082   -4.408689
H       4.585457   -2.138878   -2.135983
H       3.624491   -3.293378   -1.208964
H       3.701878   -3.411436   -2.977598
H       2.080818   -1.679129   -0.133007
