22

C       0.046162    1.472735   -0.010483
C      -0.017846   -0.023895   -0.096852
C       0.554128   -0.948730   -1.176832
C       0.026095   -1.881682   -0.081560
C       0.160750   -3.371992    0.029387
N       0.562204   -0.930366    1.031775
C      -0.809219   -0.957153    1.694631
C      -1.224381   -0.979238    0.226554
C      -2.595576   -1.016840   -0.399151
H       1.086364    1.813274   -0.038405
H      -0.484483    1.930180   -0.852757
H      -0.406591    1.843403    0.915085
H       0.040763   -0.968815   -2.142738
H       1.641652   -0.924024   -1.301018
H       1.215902   -3.663376    0.006741
H      -0.274401   -3.748398    0.961060
H      -0.347280   -3.867794   -0.805088
H      -0.987673   -1.852594    2.299945
H      -1.029924   -0.061136    2.284990
H      -3.188500   -0.143558   -0.104080
H      -2.535585   -1.024934   -1.493426
H      -3.147018   -1.911712   -0.088726
