19

C       0.058263    1.565120    0.227084
C       0.007965    0.070483   -0.006000
C       0.474223   -0.602534   -1.272144
C       1.100179    0.150107   -2.436406
O       2.261421   -0.498682   -2.919572
C       1.319634   -0.724833   -0.013104
O       2.530794   -0.032263    0.002719
C       1.374054   -1.994810    0.728059
O       2.370898   -2.335657    1.329205
H       1.018092    1.988943   -0.071459
H      -0.738246    2.075743   -0.323999
H      -0.078240    1.782104    1.290994
H      -0.820981   -0.429187    0.490484
H      -0.059081   -1.504897   -1.560681
H       0.390468    0.180125   -3.269472
H       1.311799    1.188408   -2.152958
H       2.900549   -0.453486   -2.197416
H       3.086431   -0.537014    0.620838
H       0.451492   -2.609256    0.718571
