16

N      -0.124517    1.201515   -0.493670
C      -0.002270    0.026567   -0.037104
N       1.194452   -0.568149    0.387450
C       1.434206   -1.824269    0.943135
N       0.823833   -2.926214    0.803782
C      -0.272634   -3.067652   -0.097232
C      -1.700855   -3.077704    0.402197
C      -1.222194   -1.957056   -0.471976
O      -1.112495   -0.715039    0.180415
H       0.767503    1.692996   -0.523216
H       1.967929    0.075896    0.457162
H       2.327722   -1.815367    1.570156
H      -0.054132   -3.794217   -0.877137
H      -2.392402   -3.806749   -0.003241
H      -1.849694   -2.820982    1.444861
H      -1.577426   -1.865458   -1.495527
