17

C      -0.042501    1.482253    0.089490
C       1.348455    2.152096   -0.003356
C       2.181974    1.470998   -1.047713
C       3.243905    1.845038   -1.835471
N       3.622873    0.728447   -2.519387
N       2.877843   -0.357237   -2.230438
C       1.999380    0.092602   -1.333968
C       0.949064   -0.678476   -0.693840
C       0.003350   -0.029574   -0.000568
H      -0.536390    1.791320    1.016655
H      -0.680169    1.854865   -0.727384
H       1.236575    3.223513   -0.197924
H       1.848198    2.064965    0.972374
H       3.756070    2.785796   -1.965550
H       4.357264    0.645996   -3.200886
H       0.947420   -1.757813   -0.802273
H      -0.804410   -0.582380    0.470119
