18

O       0.077525    1.414938    0.103792
C       0.018468    0.011665    0.033832
C      -1.385003   -0.580214   -0.074360
N      -1.922817   -0.497518   -1.455883
C      -1.334189   -1.767868   -0.961526
C       0.102878   -1.961499   -1.440149
O       0.241679   -2.421294   -2.761846
C       0.739934   -0.563069   -1.215567
O       0.503135    0.273045   -2.348229
H       0.178219    1.717654   -0.809421
H       0.485962   -0.384255    0.944657
H      -2.077365   -0.495907    0.756170
H      -2.936845   -0.550828   -1.442637
H      -1.986259   -2.625118   -0.834324
H       0.584855   -2.696522   -0.782623
H       0.321410   -1.626554   -3.307524
H       1.823095   -0.610249   -1.090407
H      -0.473850    0.290223   -2.426755
