16

O      -0.002107    0.150900   -0.760143
C      -0.116001    1.170667   -0.161127
C      -1.235145    2.107329    0.291266
C      -0.079247    2.927380    0.892858
C       0.138536    4.405683    0.527377
C      -0.310815    4.770429    1.971784
C      -0.040501    3.295091    2.386088
O       0.878577    1.936357    0.392963
H      -1.787360    2.574262   -0.526578
H      -1.934334    1.660680    1.000734
H       1.202058    4.604316    0.370695
H      -0.427367    4.808249   -0.315899
H       0.259328    5.543384    2.488460
H      -1.372206    5.025092    2.021687
H      -0.751433    2.797456    3.049676
H       0.969768    3.163251    2.782379
