19

C       0.037538    1.492325    0.120079
C       1.313656    0.712538   -0.019454
O       1.692592    0.110524    1.217773
C       0.458308   -0.695711    1.200183
C       0.748179   -2.146444    0.993715
C       0.521053   -2.772721   -0.162213
C      -0.039902   -2.127630   -1.404285
C      -0.739049   -0.779369   -1.137815
C      -0.016810   -0.004969   -0.076460
H      -0.214307    1.944800    1.076109
H      -0.249197    2.072313   -0.753176
H       2.088547    0.899271   -0.754940
H      -0.120713   -0.517241    2.115808
H       1.182806   -2.681597    1.833981
H       0.779170   -3.826299   -0.249584
H       0.786617   -1.979784   -2.114720
H      -0.731356   -2.818360   -1.901989
H      -0.816050   -0.199869   -2.064165
H      -1.768844   -0.966042   -0.803866
