18

C       0.000987    1.561417    0.030900
C       0.044144    0.058858    0.082322
C      -1.249399   -0.797207    0.218410
C      -0.359760   -1.865943    0.845033
C       0.981107   -1.842095    0.100904
C       0.700068   -0.855609    1.206893
C       0.904822   -0.743950   -0.961756
C       0.336555   -1.024140   -2.277024
N      -0.127992   -1.241377   -3.313733
H       1.007167    1.994159    0.042368
H      -0.500954    1.901748   -0.882227
H      -0.549639    1.966686    0.886142
H      -1.923932   -0.359770    0.959851
H      -1.803073   -1.028514   -0.697471
H      -0.655845   -2.742826    1.405365
H       1.655632   -2.687282    0.112233
H       1.227321   -0.634590    2.122994
H       1.881280   -0.266140   -1.085819
