15

C      -0.036203    1.510530    0.031376
C      -0.011583    0.014687    0.002576
C      -0.027663   -0.798382   -1.102885
N       0.006195   -2.108386   -0.680584
C       0.043738   -2.156309    0.681247
C       0.034275   -0.853654    1.151015
C       0.064064   -0.447256    2.504578
C       0.088750   -0.072393    3.650100
H       0.849964    1.916937    0.531753
H      -0.070558    1.923982   -0.980547
H      -0.907354    1.887090    0.579223
H      -0.060150   -0.552540   -2.152340
H       0.002734   -2.910910   -1.284720
H       0.074216   -3.090288    1.217607
H       0.110620    0.249767    4.660982
