19

C      -0.004036    1.508979   -0.133089
C       0.031864    0.004656    0.100406
O       1.080431   -0.551645    0.336213
C      -1.296450   -0.779660    0.039513
C      -0.993899   -2.282112   -0.059390
C      -2.065127   -0.494277    1.351743
C      -2.146865   -0.331443   -1.165629
H       0.937962    1.942744    0.204615
H      -0.118014    1.710975   -1.204280
H      -0.843456    1.992320    0.374121
H      -0.370417   -2.611922    0.773760
H      -1.926346   -2.855939   -0.051226
H      -0.455595   -2.515884   -0.982639
H      -2.315851    0.565268    1.462143
H      -3.003710   -1.058502    1.360365
H      -1.480201   -0.799631    2.224874
H      -1.615919   -0.489017   -2.110590
H      -3.071693   -0.916483   -1.204787
H      -2.428190    0.723786   -1.105304
