15

C      -0.018119    1.435793    0.105631
C      -0.004600   -0.037726   -0.068887
N      -0.048861   -0.729578   -1.161311
C      -0.005796   -2.058968   -0.734309
C       0.063693   -2.052099    0.630422
N       0.108791   -3.309973    1.131696
C       0.065611   -4.163604    0.021820
C      -0.005272   -3.427199   -1.141480
O       0.068033   -0.793139    1.114101
H       0.893124    1.786989    0.601981
H      -0.088375    1.901549   -0.877692
H      -0.869894    1.757092    0.714734
H       0.162200   -3.594353    2.092981
H       0.090200   -5.230442    0.171338
H      -0.049663   -3.835753   -2.138314
