19

O      -0.331803    0.257272   -0.161509
C       0.027613    1.346271    0.199635
C       1.392420    1.943542   -0.069758
O       2.333636    1.027738   -0.628198
C       2.364481    1.731945   -1.886832
C       1.469848    2.869027   -1.336531
C       0.214443    3.214740   -2.086944
C      -0.526717    4.497763   -1.792586
C       0.226174    4.344688   -3.088819
H      -0.649061    2.031165    0.764148
H       1.756283    2.405878    0.860168
H       3.383832    2.008762   -2.177246
H       1.904930    1.144598   -2.691537
H       2.038807    3.777390   -1.121289
H      -0.402138    2.358420   -2.347689
H      -1.610334    4.480698   -1.819701
H      -0.112058    5.163408   -1.042422
H       1.147185    4.905867   -3.209281
H      -0.340796    4.222046   -4.004548
