17

N       0.192594    1.354314    0.238619
C       0.060853   -0.040876    0.101167
C      -1.094320   -0.780079   -0.032856
N      -0.726416   -2.097725   -0.226331
C       0.634172   -2.204997   -0.206247
C       1.161807   -0.947411   -0.011118
C       2.620860   -0.576345    0.038826
C       3.015143    0.084682    1.285962
C       3.313303    0.649677    2.305331
H       0.921026    1.595177    0.902510
H      -0.671586    1.794813    0.528016
H      -2.130461   -0.484005   -0.010874
H      -1.365810   -2.860405   -0.353713
H       1.126411   -3.156410   -0.332011
H       3.232809   -1.475571   -0.100247
H       2.870734    0.093074   -0.796859
H       3.593150    1.129445    3.210179
