19

C       0.076525    1.540438    0.094868
C      -0.058532    0.021146   -0.105220
C       0.727605   -0.489969   -1.274319
N       0.123074   -0.796670   -2.416766
N       1.133273   -1.199794   -3.241354
C       2.345659   -1.169427   -2.642594
N       3.542289   -1.479885   -3.283519
C       2.131533   -0.708299   -1.354605
N       3.180557   -0.563446   -0.399744
H       1.118853    1.827477    0.270052
H      -0.271947    2.078368   -0.791606
H      -0.511998    1.877344    0.954311
H       0.266108   -0.492269    0.809392
H      -1.109837   -0.239452   -0.260201
H       0.922283   -1.436773   -4.194763
H       3.532181   -2.380167   -3.749377
H       4.289549   -1.462372   -2.596425
H       3.341539    0.408875   -0.154578
H       2.971557   -1.052724    0.464996
