21

C       0.040786    1.322146   -0.189937
O      -0.106271   -0.057981    0.045260
C       0.650198   -0.542039    1.145105
C       0.130225   -1.935050    1.548162
C       1.373850   -2.770167    1.907719
O       1.205082   -4.095627    1.427205
C       2.102758   -5.026695    1.983066
C       2.502032   -2.002441    1.249745
C       2.111236   -0.799185    0.837904
H       1.068150    1.596718   -0.473920
H      -0.626165    1.582465   -1.015693
H      -0.239726    1.917857    0.693646
H       0.554865    0.177068    1.977753
H      -0.614860   -1.904290    2.345049
H      -0.328321   -2.386466    0.664383
H       1.525604   -2.811854    3.000760
H       1.839369   -6.008874    1.582551
H       3.150372   -4.814438    1.720455
H       2.026432   -5.059806    3.081864
H       3.505767   -2.403872    1.163494
H       2.744186   -0.058975    0.360900
