22

C       0.053795    1.254719   -0.413063
C       0.195983   -0.223242   -0.038255
C       0.732661   -0.453354    1.391428
C       0.710060   -1.927256    1.854825
C       2.181432   -2.430657    1.801122
C       2.488542   -3.338725    0.605396
N       2.927350   -1.183125    1.763739
C       2.210464   -0.049422    1.502037
O       2.680765    1.062290    1.365212
H       1.007631    1.775884   -0.309978
H      -0.299736    1.362201   -1.443362
H      -0.669758    1.753185    0.241948
H      -0.779040   -0.720678   -0.116176
H       0.853045   -0.728360   -0.758693
H       0.158928    0.182313    2.073768
H       0.337692   -1.996955    2.880006
H       0.060716   -2.548407    1.231946
H       2.424417   -2.978264    2.720360
H       2.224310   -2.850173   -0.337939
H       3.553010   -3.594310    0.567937
H       1.922738   -4.273227    0.680903
H       3.934924   -1.144205    1.779410
