19

C       0.000192    1.616952    0.029424
C       0.057614    0.093535    0.202937
C      -1.317934   -0.546563    0.079059
C      -2.037491   -0.830607   -1.281308
C      -1.071926   -2.014943   -1.541390
C      -1.539923   -2.094485   -0.060294
N      -2.944043   -1.845353   -0.593749
C      -1.247596   -3.115749    0.917565
N      -0.990942   -3.910925    1.716713
H       0.990663    2.063237    0.155654
H      -0.365078    1.891418   -0.965930
H      -0.668266    2.075578    0.766023
H       0.761143   -0.330009   -0.520496
H       0.459075   -0.147425    1.195349
H      -2.000347   -0.112541    0.821445
H      -2.435192   -0.119399   -2.003884
H      -1.466746   -2.803620   -2.180349
H      -0.022010   -1.799691   -1.727288
H      -3.489993   -1.369882    0.133530
