12

C       0.023812    1.461010    0.096292
N      -0.080894    0.013541    0.134589
C      -1.212229   -0.644817   -0.230583
O      -2.238944   -0.121988   -0.620312
C      -1.103171   -2.099587   -0.116377
C      -1.092965   -3.306429   -0.049958
C      -1.065083   -4.668920    0.030802
N      -1.033139   -5.827709    0.102394
H       0.820940    1.777963   -0.583955
H      -0.928901    1.851213   -0.261683
H       0.226502    1.865460    1.093273
H       0.708269   -0.532337    0.441776
