21

C      -0.073020    1.567200   -0.036882
C      -0.000092    0.038305    0.008542
C       0.668650   -0.594358   -1.240555
C       1.286163   -1.926332   -0.759955
C       1.545564   -1.745677    0.731640
O       1.571957   -2.888832    1.539019
C       2.281528   -0.510090    1.198798
O       2.970600    0.360998    0.342770
C       0.770622   -0.533175    1.196862
H       0.930972    1.997500   -0.087616
H      -0.637986    1.906166   -0.912481
H      -0.570150    1.968209    0.852968
H      -1.023137   -0.354863    0.088996
H      -0.047494   -0.742683   -2.054149
H       1.452512    0.071350   -1.606695
H       0.577091   -2.755624   -0.862754
H       2.185181   -2.197786   -1.327307
H       2.398280   -3.355550    1.372209
H       2.723419   -0.612621    2.191057
H       3.798122   -0.059910    0.087255
H       0.290386   -0.533070    2.169907
