20

C      -0.450377    1.408429   -0.008307
C       0.086184   -0.009724    0.012009
O       1.071865   -0.164576   -0.996866
C       1.692001   -1.427778   -0.770961
C       1.633874   -1.679528    0.755353
C       0.789415   -0.492768    1.304822
C       1.676790    0.578093    1.940845
O      -0.235459   -0.900634    2.204734
H       0.356870    2.139996    0.081366
H      -0.977815    1.599590   -0.946663
H      -1.153090    1.549176    0.818138
H      -0.747968   -0.713664   -0.157200
H       1.154312   -2.216317   -1.318340
H       2.709033   -1.373885   -1.168662
H       1.119694   -2.614837    0.988051
H       2.628989   -1.718029    1.206540
H       2.396139    0.964918    1.212822
H       1.078741    1.410535    2.320761
H       2.246175    0.154051    2.777076
H       0.168694   -1.076455    3.060317
