14

N       0.047615    1.351092    0.130498
C      -0.031556   -0.008326    0.050989
C      -1.206641   -0.706427    0.029086
C      -1.200765   -2.131623   -0.002311
N      -2.193945   -2.916857   -0.021764
O       0.123570   -2.700168   -0.014496
C       1.192232   -1.898426   -0.001488
O       2.334255   -2.581931   -0.027710
N       1.212517   -0.621254    0.030165
H       0.941774    1.754763   -0.095987
H      -0.767722    1.898547   -0.086592
H      -2.171122   -0.218768    0.042593
H      -1.900916   -3.891480   -0.044429
H       2.118494   -3.523536   -0.050693
