19

C      -0.037897    1.450962   -0.051395
C       1.352100    0.823651   -0.021143
C       2.150650    0.395022   -1.236720
O       2.219920   -1.044192   -1.283594
C       0.963972   -1.676337   -1.037989
C       0.835091   -2.197163    0.428050
C      -0.004772   -1.083348    1.134437
C       0.099043   -0.020525    0.067182
O      -0.078740   -0.730562   -1.155280
H      -0.327024    2.022706    0.823444
H      -0.431317    1.826692   -0.990281
H       1.912033    0.962323    0.898583
H       1.707539    0.782647   -2.161177
H       3.189887    0.727117   -1.189375
H       0.831082   -2.449572   -1.798840
H       0.328825   -3.165160    0.451365
H       1.827296   -2.316327    0.866526
H      -1.038495   -1.405737    1.291573
H       0.413422   -0.771262    2.093397
