17

C      -0.225651    1.650079   -0.078658
C       0.018744    0.147896   -0.007767
C       1.119823   -0.539629   -0.849864
O       1.315320   -0.587317   -2.033270
C       1.734963   -1.246698    0.315758
C       2.067762   -0.231095    1.401524
O       2.624187    1.024994    1.140276
C       0.633610   -0.506229    1.233760
O      -0.198712   -0.990211    2.208480
H       0.682159    2.206430    0.158658
H      -0.552274    1.923664   -1.086743
H      -1.011910    1.948973    0.621859
H      -0.905725   -0.399504   -0.237793
H       2.177191   -2.236467    0.318108
H       2.496615   -0.725747    2.280556
H       3.469590    0.892073    0.696657
H       0.296268   -1.105780    3.026672
