19

C      -0.016606    1.488561    0.048485
C       0.004686   -0.019662   -0.008555
C       0.982624   -0.701247   -0.974642
O       0.246000   -1.722144   -1.651658
C      -0.794942   -2.140073   -0.751657
C      -0.157774   -2.970980    0.357554
C       0.107281   -2.201830    1.416291
C      -0.441114   -0.823463    1.234554
C      -1.245938   -0.849088   -0.038412
H       0.933871    1.888080    0.420466
H      -0.191491    1.917162   -0.945207
H      -0.807958    1.849106    0.713074
H       1.353859   -0.000992   -1.730254
H       1.846102   -1.131626   -0.448357
H      -1.551754   -2.648586   -1.351368
H       0.188171   -3.984722    0.196849
H       0.676450   -2.498603    2.290094
H      -0.765127   -0.245989    2.094016
H      -2.243247   -0.440629   -0.142700
