25

C      -0.347358    1.518767   -0.089059
C      -0.080142    0.027658   -0.018591
C      -1.280418   -0.796545   -0.456321
C       1.284814   -0.552750   -0.356367
C       2.501763    0.305327   -0.698404
C       3.412371    0.539949    0.518063
C       2.625626    1.142957    1.686110
C       1.500374    0.202570    2.169619
C       0.773060   -0.575974    1.077133
H       0.510738    2.129451    0.193296
H      -0.638198    1.810889   -1.105743
H      -1.175723    1.791630    0.575810
H      -1.566228   -0.561490   -1.489058
H      -1.069935   -1.869424   -0.405892
H      -2.151454   -0.598338    0.180580
H       1.251845   -1.503279   -0.881977
H       3.070197   -0.184226   -1.495738
H       2.194253    1.277057   -1.105002
H       3.855162   -0.415381    0.831211
H       4.244213    1.197918    0.241883
H       3.294287    1.354269    2.528072
H       2.217840    2.113273    1.378320
H       1.955893   -0.540633    2.836286
H       0.786709    0.760081    2.789488
H       0.415421   -1.541660    1.426805
