17

C       0.081423    1.545459    0.010630
C       0.076082    0.035531    0.004649
O       0.738900   -0.425985   -1.159371
C       1.060291   -1.787440   -1.063927
C       0.325335   -2.671166   -0.002605
O       1.492880   -3.559657    0.009430
C       2.086481   -2.211845    0.022563
C       1.031762   -1.795823    1.084716
O       0.707782   -0.435139    1.182243
H       1.111788    1.908363    0.025632
H      -0.418021    1.922026   -0.884874
H      -0.441488    1.915039    0.895586
H      -0.953123   -0.365659   -0.010591
H       1.193926   -2.216841   -2.057044
H      -0.658002   -3.140835   -0.017495
H       3.172015   -2.123859    0.037315
H       1.139052   -2.232996    2.077639
