13

O       0.248790    0.093143   -0.209053
C       0.389151    1.261602   -0.380063
O       0.967662    2.062248    0.559863
C       0.985013    3.436543    0.294625
C       2.121015    4.191667    0.883099
C       2.056445    4.011754   -0.630774
C       2.977875    3.129640   -1.285559
N       3.707797    2.416877   -1.830510
H       0.077741    1.818433   -1.282238
H       0.003450    3.899987    0.251603
H       1.945114    5.185795    1.274964
H       2.863535    3.603315    1.408189
H       1.766799    4.874625   -1.221230
