22

C      -0.028603    1.596621   -0.009539
C      -0.018700    0.069715    0.102690
C      -1.376629   -0.554895   -0.250633
C      -1.421948   -2.064656   -0.052843
C      -0.493337   -2.871273   -0.943783
N      -1.610263   -2.502903    1.328076
C      -2.700623   -2.757538    0.358975
C      -3.983284   -2.044394    0.609367
O      -5.039022   -2.391913    0.140166
H       0.947254    2.019704    0.247819
H      -0.272920    1.918932   -1.027928
H      -0.771367    2.038554    0.663583
H       0.763785   -0.333746   -0.551067
H       0.245828   -0.226104    1.125181
H      -2.144071   -0.086545    0.372418
H      -1.633843   -0.324259   -1.293016
H       0.554637   -2.632541   -0.735502
H      -0.630818   -3.945921   -0.788918
H      -0.679110   -2.656903   -2.001465
H      -1.107828   -3.367529    1.514035
H      -2.840288   -3.762734   -0.032593
H      -3.901582   -1.163869    1.282106
