19

C       0.055789    1.540475   -0.059622
O       1.409248    1.554494    0.430147
C       1.463368    0.111082    0.473144
C       0.012728   -0.001680   -0.050125
C      -0.981293   -0.644524    0.914611
O      -0.810288   -2.055665    0.928824
C      -0.956681   -2.594106   -0.358814
O      -0.014603   -2.091451   -1.269412
C      -0.140387   -0.682344   -1.408539
H      -0.641201    2.037822    0.629005
H      -0.033794    2.010515   -1.048762
H       2.237204   -0.294201   -0.189628
H       1.629631   -0.266983    1.488901
H      -0.829173   -0.297826    1.940636
H      -2.013127   -0.389060    0.614442
H      -0.784822   -3.668930   -0.279110
H      -1.980068   -2.393363   -0.732513
H      -1.122638   -0.429104   -1.845688
H       0.636687   -0.363756   -2.109057
