15

O       0.077216    1.431355    0.191598
C       0.065003    0.017539    0.151775
C      -1.355522   -0.543582   -0.057427
C      -1.370044   -2.035320   -0.089606
N      -0.814912   -2.808478   -1.010746
C      -1.080701   -4.065769   -0.561359
N      -1.759607   -4.130462    0.571439
N      -1.932314   -2.817199    0.858896
H      -0.092201    1.756557   -0.698327
H       0.728804   -0.384128   -0.625321
H       0.453508   -0.316476    1.119388
H      -2.009541   -0.167787    0.736199
H      -1.749123   -0.167763   -1.009232
H      -0.767895   -4.957198   -1.084288
H      -2.437510   -2.548569    1.687620
