16

O       0.007488    1.418642   -0.154317
C       0.056555    0.010298   -0.037797
C      -1.345694   -0.612541   -0.150700
N      -1.606887   -0.263533   -1.606778
C      -0.538942   -1.303558   -1.916047
C       0.722796   -0.638857   -1.324851
O       1.320849    0.307685   -2.160284
C      -1.093785   -2.042013   -0.679205
O      -1.442342   -3.147345   -0.393718
H      -0.693563    1.592460   -0.803112
H       0.576907   -0.223582    0.891198
H      -2.094358   -0.349391    0.594281
H      -2.518656   -0.624682   -1.883891
H      -0.490440   -1.720135   -2.919329
H       1.455833   -1.408297   -1.051656
H       1.196171    1.163006   -1.722052
