14

N      -0.013226   -1.162637   -0.061042
C      -0.030851   -0.009928    0.009841
C      -0.016816    1.446627    0.100149
C       1.410836    2.001708   -0.083958
N       1.420927    3.449190    0.018754
C       1.967061    4.271082    0.934881
N       1.697753    5.515330    0.610084
N       0.965798    5.442984   -0.533781
N       0.792651    4.217487   -0.899289
H      -0.670664    1.870258   -0.668132
H      -0.415614    1.752743    1.073092
H       2.081718    1.606171    0.680985
H       1.802117    1.716724   -1.063097
H       2.535833    3.936564    1.787258
