8

O       0.193759    1.371710    0.313983
C       0.049926    0.014055   -0.045262
C      -1.408880   -0.396357   -0.206016
O      -1.777295   -1.372339   -0.803617
H      -0.017232    1.912691   -0.453378
H       0.604405   -0.265198   -0.952057
H       0.467404   -0.575217    0.781763
H      -2.118351    0.300760    0.298705
