16

O      -0.594591    1.126816   -0.140194
C      -0.110683   -0.126882   -0.031096
N       1.030081   -0.485264   -0.602758
N       1.157922   -1.793169   -0.258408
C       0.139022   -2.251802    0.508027
C      -0.723300   -1.179183    0.680453
C       0.085364   -3.653965    0.957319
C      -0.726027   -4.042348    2.142931
N      -1.158330   -4.443141    0.799328
H       0.033193    1.625887   -0.677810
H       1.953262   -2.309998   -0.591442
H      -1.642663   -1.144428    1.240493
H       0.984419   -4.228009    0.742267
H      -0.389619   -4.856517    2.778714
H      -1.263957   -3.253040    2.660428
H      -1.896725   -3.823155    0.473054
