21

O      -0.041470    1.425812    0.052699
C       0.022561    0.006773    0.026043
C      -1.406693   -0.532347   -0.036152
C      -2.149704   -0.072142   -1.302177
C      -3.531894   -0.726188   -1.397828
C      -3.440165   -2.255858   -1.535016
C      -2.385767   -2.872186   -0.631691
O      -1.025249   -2.776996   -1.082406
C      -1.404088   -2.042730    0.088225
H       0.854962    1.768571   -0.001555
H       0.584118   -0.355358   -0.848745
H       0.525661   -0.382547    0.926545
H      -1.938625   -0.138234    0.842903
H      -2.233293    1.017005   -1.285472
H      -1.551871   -0.337131   -2.182837
H      -4.104831   -0.477580   -0.494409
H      -4.093544   -0.313530   -2.242579
H      -4.411232   -2.713160   -1.314795
H      -3.194123   -2.531015   -2.568068
H      -2.627173   -3.849642   -0.212445
H      -0.975597   -2.436537    1.012695
