15

O      -0.032924    1.424942   -0.403058
C      -0.005602    0.194547    0.296281
C      -1.348703   -0.489013    0.227278
O      -1.661784   -1.116624   -1.016948
C      -1.510490   -1.960767    0.136176
C      -0.395060   -2.863040    0.165948
C       0.509163   -3.663115    0.222590
C       1.606978   -4.596599    0.252761
O       1.748155   -5.454570    1.092916
H      -0.217797    1.223876   -1.327375
H       0.771299   -0.481612   -0.085316
H       0.234064    0.435157    1.337371
H      -2.178447    0.069042    0.663343
H      -2.445751   -2.381721    0.503431
H       2.332770   -4.465797   -0.574849
