22

C       0.049060    1.321134   -0.508380
C       0.019039   -0.176740   -0.200815
O       0.731940   -0.931187   -1.180269
C       0.665891   -0.511968    1.123668
C       2.109736   -0.234161    1.608745
N       1.503392   -0.968593    2.818864
C       0.277807   -0.073962    2.553761
C       0.901727   -1.916544    1.747662
C      -0.211054   -2.862093    2.156868
H       1.081457    1.680970   -0.552604
H      -0.428471    1.529747   -1.472614
H      -0.488273    1.890934    0.256608
H      -1.032764   -0.510574   -0.160532
H       0.359121   -0.724929   -2.043257
H       2.926319   -0.778304    1.128146
H       2.390302    0.798806    1.831916
H       0.445138    0.971338    2.829213
H      -0.651917   -0.438481    2.992250
H       1.697980   -2.489443    1.261315
H      -1.089263   -2.366747    2.577147
H      -0.538222   -3.437716    1.284485
H       0.162712   -3.571448    2.902788
