14

O      -0.622289    0.870463    0.814003
C       0.145822    0.791379   -0.107020
C       1.432922    1.593422   -0.194488
O       2.403412    0.976562   -1.053441
C       2.386792    2.076226   -1.984073
C       1.379413    2.872271   -1.106840
C       0.114753    3.246673   -1.701959
C      -0.935323    3.543999   -2.205679
H      -0.023104    0.119252   -0.977161
H       1.812551    1.777711    0.816370
H       3.374448    2.535543   -2.097326
H       2.000937    1.781763   -2.965433
H       1.837372    3.731511   -0.611558
H      -1.865857    3.810285   -2.643260
