18

C       0.503534    1.321834    0.198677
N       0.613320   -0.116440    0.031111
C       0.532545   -0.585274   -1.160387
N       0.371314    0.098141   -2.321836
C       0.650739   -2.102549   -1.347675
O       0.420741   -2.490669   -2.674635
C       2.043344   -2.635104   -0.926519
N       2.436327   -2.306445    0.315833
O       2.658009   -3.340034   -1.714946
H       1.300153    1.870548   -0.329003
H      -0.460634    1.714666   -0.164152
H       0.575268    1.573512    1.259601
H       0.121532    1.070701   -2.318656
H       0.208443   -0.455016   -3.149043
H      -0.089867   -2.557575   -0.675301
H       1.215710   -3.013674   -2.900841
H       1.940444   -1.534999    0.759767
H       3.371048   -2.551358    0.601242
