17

C      -0.294276    1.501392    0.027984
C       0.025668    0.027014   -0.000001
C      -0.684694   -0.939668    0.933191
C       0.782250   -0.677925    1.097411
O       1.647559   -1.669810    0.553498
C       1.474008   -1.732405   -0.788440
O       1.937190   -2.592862   -1.481377
C       0.562270   -0.590102   -1.272955
O      -0.429138   -1.097164   -2.137310
H       0.551434    2.097838   -0.332190
H      -1.157597    1.722586   -0.608256
H      -0.533634    1.836349    1.041954
H      -1.358466   -0.505526    1.663723
H      -0.989187   -1.907595    0.549732
H       1.211613   -0.190053    1.962672
H       1.197993    0.146958   -1.792997
H       0.002082   -1.774010   -2.676778
