13

O       0.440666    1.206505   -1.709456
C       0.151452    1.670054   -0.632162
C       1.101631    1.744905    0.462311
C       1.922116    1.775125    1.342145
C      -1.239859    2.203388   -0.335090
C      -1.830807    1.898486    0.998080
O      -1.300923    3.178678    0.721294
C      -2.095177    2.415995   -1.471293
C      -2.807303    2.597385   -2.420615
H       2.650782    1.807814    2.115823
H      -2.915007    1.832559    1.060642
H      -1.262648    1.294780    1.703214
H      -3.433594    2.758297   -3.263472
