18

C      -0.539607    1.373689   -0.028592
C      -0.092000   -0.067056    0.192689
O       0.308025   -0.565519   -1.106508
C       1.258011   -1.508007   -1.267594
O       1.581771   -1.841974   -2.376860
C       1.890320   -2.132220   -0.008883
N       3.208079   -2.707864   -0.254950
C       1.918104   -1.147292    1.126495
C       0.994974   -0.198776    1.221381
H       0.306443    1.993331   -0.338748
H      -1.307777    1.416828   -0.803794
H      -0.953526    1.783107    0.897788
H      -0.963513   -0.664324    0.502314
H       1.221890   -2.963829    0.271588
H       3.148221   -3.268061   -1.102097
H       3.852430   -1.955101   -0.488415
H       2.709043   -1.270006    1.859723
H       0.974266    0.503059    2.049203
