18

C       0.079434    1.377397    0.059064
O      -0.085354   -0.014298   -0.097394
C       0.634443   -0.569137   -1.173878
C       2.097490   -0.905990   -0.777262
C       2.026642   -2.353353   -0.359583
C       0.889910   -2.932045   -0.732961
C       0.004079   -1.961406   -1.497426
C      -1.421644   -2.055571   -1.183140
N      -2.550983   -2.177836   -0.973075
H       1.116539    1.653886    0.300838
H      -0.222013    1.922480   -0.848409
H      -0.564586    1.682000    0.886549
H       0.580637    0.099079   -2.044292
H       2.784197   -0.770923   -1.623900
H       2.446262   -0.242702    0.021075
H       2.834424   -2.852523    0.162876
H       0.603381   -3.963597   -0.574219
H       0.099646   -2.152115   -2.576327
