19

O      -0.015275    1.296155   -0.393988
C      -0.055205   -0.042729    0.090454
C      -1.480581   -0.507437    0.091226
C      -2.535675    0.164655    0.953572
C      -3.731442   -0.682994    0.571298
C      -3.618382   -1.150314   -0.868344
C      -3.301210   -2.106507    0.263757
C      -1.790659   -1.989228   -0.061220
C      -2.108549   -1.030507   -1.190851
H       0.884066    1.621748   -0.292577
H       0.551936   -0.711286   -0.541511
H       0.353322   -0.100749    1.112457
H      -2.298132    0.095298    2.022203
H      -2.659760    1.219836    0.690974
H      -4.715132   -0.510112    0.991911
H      -4.433930   -1.164553   -1.577909
H      -3.826042   -2.994170    0.588682
H      -1.049762   -2.775906   -0.005773
H      -1.653478   -0.930305   -2.166659
