19

C      -0.350593    1.436283    0.084619
C       0.157467    0.016009   -0.057235
O       1.428726   -0.050429   -0.754131
C       2.052655   -0.795751    0.311305
C       0.793740   -0.671573    1.160632
C       0.676891   -0.332171    2.596621
C       0.219885   -1.708386    2.105526
C      -1.233303   -1.981791    2.076356
O      -1.737441   -3.063210    2.250487
H       0.367559    2.055994    0.629060
H      -0.506060    1.874876   -0.905786
H      -1.308333    1.455629    0.616296
H      -0.587398   -0.608034   -0.571377
H       2.311570   -1.817494    0.003814
H       2.950483   -0.295776    0.696061
H       1.573552   -0.302609    3.206498
H      -0.098774    0.365453    2.899851
H       0.840052   -2.567703    2.340345
H      -1.861409   -1.079715    1.879114
