16

C      -0.011159    1.514811    0.100033
C      -0.023504    0.015911    0.031196
C       1.176239   -0.837454   -0.336808
C       0.566389   -0.983570    1.041196
O       1.245323   -0.646013    2.195570
C      -0.705857   -1.801912    0.962037
O      -1.830976   -0.960900    1.274215
C      -1.259245   -0.865043   -0.033813
H       0.934073    1.873855    0.518802
H      -0.134903    1.967962   -0.890027
H      -0.820164    1.871998    0.744656
H       1.098849   -1.629142   -1.077716
H       2.123926   -0.305440   -0.348329
H       1.993106   -1.243772    2.299696
H      -0.852454   -2.871664    1.058431
H      -1.901108   -1.080498   -0.880387
