16

C       0.226915    1.586769   -0.047793
O       1.514056    1.403683    0.591744
C       1.309265   -0.010462    0.702958
C      -0.038582    0.069451   -0.065937
C       0.566069   -0.790710   -1.222951
C       1.408250   -0.093783   -2.308348
O       2.598509   -0.139002   -1.483426
C       1.916843   -0.874757   -0.459649
H      -0.459439    2.144981    0.601512
H       0.306656    2.108977   -1.007240
H       1.437900   -0.384565    1.723443
H      -0.988403   -0.278150    0.337681
H      -0.016473   -1.660793   -1.522106
H       1.536522   -0.694402   -3.217788
H       1.137096    0.927530   -2.596438
H       2.432003   -1.798659   -0.178747
