17

C      -0.130463    1.551309    0.003133
C      -0.067187    0.019574   -0.012899
C       1.156462   -0.524974   -0.823727
N       1.931118   -0.598395    0.434909
C       0.692261   -0.592999    1.235152
C       0.739346    0.184282    2.472562
N       0.757780    0.800035    3.450492
C      -1.355224   -0.578857   -0.303521
C      -2.423732   -1.074274   -0.545263
H       0.856974    1.967261    0.218580
H      -0.464552    1.917699   -0.971368
H      -0.831952    1.904539    0.762996
H       0.938653   -1.493987   -1.288509
H       1.576532    0.153751   -1.571979
H       2.516194   -1.417143    0.555800
H       0.288790   -1.587755    1.464784
H      -3.369622   -1.508427   -0.757608
