22

C       0.897493    1.275626   -0.158110
C       0.214248   -0.045455    0.097630
N       1.080224   -1.165535    0.506810
C       0.069072   -0.636136    1.459725
C       0.566119    0.034931    2.739620
C       1.912075   -0.508537    3.239563
O       2.957230   -0.227782    2.314797
C       2.353365    0.123094    4.557675
O       3.626234   -0.351704    4.941472
H       1.728512    1.420718    0.535891
H       1.297220    1.309017   -1.176912
H       0.193274    2.107063   -0.044821
H      -0.581048   -0.290271   -0.604832
H       0.774365   -2.045664    0.104495
H      -0.804155   -1.269875    1.596983
H       0.667093    1.115719    2.593342
H      -0.191521   -0.107556    3.519136
H       1.830761   -1.597436    3.393483
H       2.688893   -0.661127    1.484452
H       2.350440    1.220702    4.442292
H       1.650687   -0.133703    5.357958
H       4.152587   -0.332889    4.131584
