18

C      -0.116990    1.499751   -0.038799
C       0.023951    0.010384   -0.036468
C       0.823207   -0.895869   -1.016521
C       2.253182   -0.888670   -0.417265
C       2.122911   -0.918134    0.921197
C       0.609049   -0.939310    1.058385
C      -0.776573   -0.975681    1.724152
N      -1.177527   -0.942265    0.235279
C       0.045746   -1.834876   -0.071485
H       0.871873    1.969787   -0.072031
H      -0.685920    1.830139   -0.914006
H      -0.639727    1.854626    0.855252
H       0.705175   -0.878672   -2.101371
H       3.166965   -0.862649   -0.995085
H       2.891064   -0.915154    1.680614
H      -1.077399   -1.898924    2.228856
H      -1.109547   -0.100863    2.290413
H      -0.036687   -2.924428   -0.077330
