18

C       0.486299    1.015938   -0.643733
C       0.020469   -0.046101    0.352669
O       0.095452    0.435438    1.705880
C      -1.348800   -0.579800    0.069290
C      -2.310709   -0.409426   -0.908539
N      -2.315286    0.426634   -2.032441
N      -3.426660   -1.163038   -0.634053
C      -3.162787   -1.785499    0.496186
N      -1.927143   -1.487566    0.953882
H       1.438265    1.429844   -0.302763
H       0.641311    0.586023   -1.639450
H      -0.242599    1.827495   -0.730061
H       0.751741   -0.866919    0.349438
H      -0.582285    1.116309    1.796369
H      -1.447010    0.425088   -2.549765
H      -3.082644    0.170092   -2.641178
H      -3.831769   -2.455814    1.014788
H      -1.512244   -1.764511    1.828112
