18

C       0.116623    1.544286    0.031300
C      -0.022732    0.056044   -0.087459
C      -0.951539   -0.749114    0.729195
N       0.494518   -0.917489    0.979005
C       0.996482   -1.825282   -0.129305
C       0.383177   -3.133182   -0.236334
C      -0.171865   -4.190920   -0.388056
C       0.574511   -0.777543   -1.225441
O      -0.213745   -1.172550   -2.309362
H       1.140077    1.866011   -0.189708
H      -0.554831    2.048510   -0.673160
H      -0.134827    1.881718    1.040864
H      -1.454995   -0.236312    1.543146
H      -1.515833   -1.578593    0.310881
H       2.080963   -1.918332   -0.038044
H      -0.628847   -5.144414   -0.492560
H       1.455839   -0.285854   -1.646030
H      -0.797247   -1.881915   -2.014191
