15

O      -0.069195   -0.089507   -0.001855
C       0.078730    0.996778    0.519563
N       1.222865    1.719780    0.464532
C       2.386381    1.231116   -0.242962
C       3.478830    2.239766   -0.126239
N       3.442089    3.376507    0.493000
C       4.707918    3.920779    0.295893
C       5.442955    3.062145   -0.443875
O       4.660472    1.971717   -0.723384
H      -0.713131    1.511295    1.097933
H       1.302587    2.620448    0.913466
H       2.715481    0.266441    0.165325
H       2.152123    1.046086   -1.299602
H       4.984598    4.880769    0.700521
H       6.444514    3.048461   -0.836382
