17

C      -0.070404    1.567061    0.009982
C       1.447250    1.271640   -0.005346
C       1.219783    0.119313    1.027199
C       2.218198   -1.006079    0.753737
C       2.204071   -0.997725   -0.802773
C       1.201021    0.130490   -1.045972
C       0.043757    0.025096    0.000630
H      -0.474405    2.026280    0.917367
H      -0.490712    2.035998   -0.884940
H       2.270711    1.989697   -0.008923
H       0.992742    0.379904    2.063357
H       3.208258   -0.790464    1.168687
H       1.889360   -1.962007    1.174395
H       3.186469   -0.777692   -1.233313
H       1.867442   -1.949089   -1.227602
H       0.955296    0.402220   -2.074982
H      -0.766473   -0.707859    0.004007
