17

C      -0.983713    0.637297    0.279981
C       0.385237    0.105039   -0.077653
O       1.341021    0.206347    0.656846
C       0.495395   -0.577529   -1.456258
C       1.859102   -1.271492   -1.685704
O       1.515662   -2.667767   -1.839584
C       0.163962   -2.722826   -1.768097
N      -0.350925   -3.970997   -1.969142
N      -0.504006   -1.648603   -1.575236
H      -1.287006    1.400679   -0.446260
H      -1.718094   -0.169604    0.209712
H      -0.968562    1.067445    1.281883
H       0.302118    0.200305   -2.209510
H       2.366946   -0.943494   -2.595628
H       2.521588   -1.157774   -0.825586
H       0.270162   -4.736980   -1.761959
H      -1.302210   -4.088239   -1.659294
