16

C      -0.594625    1.258580    0.054469
N       0.007872   -0.070998    0.048269
C       1.403398   -0.191893   -0.318368
C       0.974213   -0.448635    1.094668
C       1.384599    0.446000    2.185552
C       1.416354    0.248532    3.536744
N       1.893991    1.402303    4.103756
N       2.146241    2.265373    3.231463
O       1.829281    1.679277    1.941083
H       0.095101    2.069274    0.322492
H      -0.987215    1.452071   -0.948109
H      -1.434476    1.266266    0.755556
H       1.664868   -1.033287   -0.954722
H       1.973040    0.719282   -0.493261
H       0.857665   -1.475469    1.431114
H       1.140486   -0.609938    4.124258
