23

C      -0.011440    1.553333    0.013999
C       0.088827    0.023274    0.005157
C       0.661168   -0.532741   -1.273738
C       0.038845   -0.369197   -2.687551
C       1.099520   -1.462018   -3.019572
C       2.378218   -0.670712   -2.727931
O       2.015847   -0.056120   -1.472880
C       0.786099   -2.054339   -1.601509
C       1.783496   -2.918331   -0.848106
H       0.970947    2.002645   -0.150505
H      -0.681084    1.910680   -0.775393
H      -0.401123    1.913878    0.970607
H       0.720409   -0.311447    0.837507
H      -0.900777   -0.422702    0.161186
H      -0.987749   -0.733855   -2.753525
H       0.140022    0.606778   -3.168526
H       1.068021   -2.062427   -3.928636
H       3.270052   -1.294875   -2.600500
H       2.590754    0.098832   -3.479972
H      -0.203975   -2.519880   -1.614835
H       2.717336   -2.381491   -0.663300
H       1.377853   -3.218463    0.124046
H       2.014760   -3.834527   -1.402909
