22

C      -0.412315    1.375906    0.163823
N       0.003939   -0.016752    0.116221
C       1.373931   -0.298041   -0.294731
C       0.940206   -0.551628    1.109603
C       1.504137    0.244838    2.269444
C       0.567026    0.277890    3.483950
C       1.190675    1.014990    4.686099
C       0.314621    1.052913    5.850515
C      -0.427092    1.070056    6.796299
H       0.375244    2.088143    0.457254
H      -0.764208    1.665835   -0.831641
H      -1.250532    1.484042    0.860005
H       1.509447   -1.114573   -0.999847
H       2.039768    0.551027   -0.454284
H       0.701832   -1.581509    1.378503
H       2.458072   -0.215440    2.562417
H       1.748701    1.266304    1.957666
H      -0.378714    0.762408    3.218298
H       0.314074   -0.745347    3.785230
H       2.138766    0.531558    4.957662
H       1.450052    2.040698    4.391374
H      -1.074283    1.090810    7.637578
