19

C      -0.099922    1.504256    0.022903
C       0.049270    0.011377    0.010038
C       0.492591   -0.722555   -1.275726
C       0.527885   -2.156693   -0.671865
C       1.929581   -2.378714   -0.101067
O       2.081978   -1.308585    0.857659
C       0.784223   -0.836845    1.121567
C      -0.279808   -1.828458    0.633692
O      -1.171635   -0.737935    0.333520
H       0.869235    1.980313   -0.157437
H      -0.792317    1.832571   -0.759689
H      -0.482709    1.849470    0.987507
H      -0.263695   -0.599167   -2.054021
H       1.464617   -0.398442   -1.656912
H       0.151657   -2.960783   -1.302916
H       2.032823   -3.348668    0.407754
H       2.722020   -2.294897   -0.851193
H       0.700876   -0.440673    2.132991
H      -0.717660   -2.636681    1.217547
