20

C      -0.056797    1.617756   -0.087613
C       0.044791    0.094083   -0.125022
N      -1.284155   -0.505594    0.039463
C      -1.802022   -0.686851    1.441378
C      -2.744370   -1.811874    0.906393
C      -2.858163   -2.862698    1.994924
O      -1.510985   -2.877955    2.510868
C      -0.866077   -1.914345    1.711795
C      -1.350936   -1.994217    0.224581
H       0.916160    2.077640   -0.286113
H      -0.772059    1.970564   -0.835776
H      -0.396225    1.966846    0.893595
H       0.414771   -0.225299   -1.107419
H       0.788434   -0.242357    0.615594
H      -2.059441    0.148301    2.094531
H      -3.605145   -1.542547    0.298139
H      -3.559866   -2.591049    2.792862
H      -3.123953   -3.857178    1.616413
H       0.177920   -1.822640    1.997984
H      -1.071325   -2.698397   -0.561262
