21

C       0.750186    1.660750    0.704666
C       0.411565    0.238244    0.255973
C      -1.092373    0.012692    0.041812
C      -1.378171   -1.396596   -0.505315
N      -1.784757    0.196569    1.311388
C      -3.015161    0.550701    1.322110
N      -3.883393    0.782064    0.290006
C      -3.631056    0.728971    2.678426
O      -4.755664    1.137040    2.844797
H       1.824758    1.778273    0.874498
H       0.451146    2.397178   -0.050734
H       0.228805    1.903150    1.634989
H       0.937749    0.003501   -0.677575
H       0.757085   -0.481373    1.008118
H      -1.433955    0.751588   -0.708278
H      -2.447932   -1.546819   -0.677296
H      -0.850503   -1.555930   -1.450958
H      -1.041184   -2.151870    0.211066
H      -3.530646    0.952176   -0.636184
H      -4.740812    1.247322    0.550949
H      -2.944821    0.466352    3.504680
