21

O      -0.175021    1.576564   -0.133545
C      -0.114146    0.253341   -0.650266
C      -1.333997   -0.513659   -0.171020
C      -1.479603   -1.893092   -0.782476
N      -0.304984   -2.719104   -0.513559
C      -0.354187   -3.553813    0.682565
C      -0.476770   -4.157275   -0.673196
C      -1.870605   -0.231630    1.183585
N      -2.601411    0.214472   -0.022446
H       0.604223    2.053241   -0.430627
H      -0.110965    0.262891   -1.752923
H       0.793633   -0.270483   -0.323752
H      -2.415114   -2.345749   -0.412860
H      -1.576541   -1.797946   -1.872060
H       0.572183   -3.637053    1.243612
H      -1.255202   -3.518314    1.292537
H      -1.460070   -4.523252   -0.965621
H       0.358196   -4.688388   -1.121535
H      -2.360365   -1.019632    1.749690
H      -1.364890    0.522651    1.777369
H      -2.410878    1.205914   -0.155081
