18

C      -0.517417    1.487669   -0.004957
C      -0.264065    0.006312    0.130559
C       0.995866   -0.606127   -0.373600
N       0.762007   -0.517638    1.063613
C       1.543863    0.355207    1.821088
C       2.837018    0.833367    1.692704
C       3.044348    1.600607    2.861061
N       1.981436    1.612243    3.656003
N       1.079367    0.842947    3.001374
H       0.416320    2.055427    0.006813
H      -1.036005    1.693585   -0.946839
H      -1.147790    1.857883    0.810721
H      -1.157535   -0.614624    0.124156
H       1.004240   -1.612696   -0.781728
H       1.730960    0.070096   -0.804978
H       3.524572    0.641563    0.885979
H       3.930725    2.147395    3.149333
H       0.185884    0.652796    3.422075
