14

O       0.400418    0.897492   -0.673357
C      -0.050452    0.014932    0.332546
C      -1.456155   -0.437535    0.082732
C      -2.238327   -0.430163   -1.036440
C      -3.488506   -0.994098   -0.653626
C      -3.377810   -1.304959    0.672982
O      -2.133170   -0.961311    1.132461
C      -4.281785   -1.879745    1.589604
N      -5.039827   -2.353044    2.327468
H      -0.138805    1.694581   -0.630756
H       0.634013   -0.841528    0.310066
H       0.015868    0.446593    1.342771
H      -1.945382   -0.075439   -2.010929
H      -4.359803   -1.153104   -1.268727
