20

C      -0.173446    1.585250   -0.034050
C       0.013244    0.075533    0.007967
C       1.246246   -0.593515   -0.644145
C       2.146466   -0.162660    0.582363
C       3.137842   -1.295867    0.786871
C       2.849571   -2.297783    1.847454
N       2.322972   -2.493600    0.482901
C       1.017392   -1.844636    0.259982
C       0.769460   -0.596909    1.182708
H       0.744290    2.132367    0.198760
H      -0.506682    1.905089   -1.027677
H      -0.938978    1.900782    0.683621
H      -0.932458   -0.423081   -0.239029
H       1.537969   -0.600729   -1.696089
H       2.497761    0.862710    0.682209
H       4.124735   -1.234074    0.336171
H       3.622038   -3.007514    2.130181
H       2.159509   -2.041491    2.645426
H       0.203828   -2.539142    0.048335
H       0.478672   -0.589880    2.234471
