16

O       0.282680    1.201664   -0.650191
C       0.085573   -0.071658   -0.079191
C       0.503686   -0.182798    1.379393
C      -0.415750   -0.753043    2.159851
C      -1.660837   -1.082035    1.391143
O      -2.714625   -0.043681    1.583319
C      -2.379713    0.531274    0.385031
N      -2.720459    1.627763   -0.130172
C      -1.391926   -0.538754   -0.028287
H      -0.503920    1.739674   -0.474444
H       0.679860   -0.765507   -0.687803
H       1.470841    0.183755    1.705617
H      -0.327030   -0.932245    3.224921
H      -2.090155   -2.073566    1.535961
H      -3.366494    2.142718    0.470596
H      -1.710164   -1.141061   -0.877638
