18

C       0.474871    1.373000    0.401313
C       0.068429   -0.050394    0.063364
C      -1.370480   -0.390467    0.400009
C       0.694522   -0.778704   -1.134296
C       1.700648   -0.114448   -2.019726
O       1.654123   -0.210312   -3.219991
N       1.019354   -1.124810    0.234246
C       2.272063   -1.130263    0.816212
O       3.289888   -1.478740    0.268910
H       1.527768    1.572294    0.192655
H      -0.129040    2.084371   -0.170190
H       0.297181    1.570178    1.463823
H      -2.056366    0.255615   -0.156779
H      -1.593621   -1.431768    0.158445
H      -1.556971   -0.238501    1.468786
H       0.067821   -1.490680   -1.667087
H       2.487384    0.477287   -1.512698
H       2.220447   -0.852355    1.886003
