12

O       0.104876    1.323670    0.129674
C       0.059133   -0.012340   -0.002203
C       0.021133   -0.850254   -1.098336
N      -0.018839   -2.171243   -0.660667
C      -0.004841   -2.113384    0.640920
N       0.042284   -0.812882    1.100690
C       0.023305   -0.417406   -2.440868
C       0.028119    0.028993   -3.561557
H       0.109715    1.699768   -0.760561
H      -0.026584   -2.953989    1.317238
H       0.061567   -0.492766    2.054837
H       0.031470    0.393748   -4.558442
