18

N      -0.122421    1.324276    0.283433
C       0.019868    0.079951    0.065575
O      -1.134979   -0.635257   -0.136341
C      -1.294876   -1.828068    0.591578
C      -2.019548   -2.931580   -0.117533
C      -0.531990   -3.039806    0.144711
C       0.474155   -2.829374   -0.977902
C       1.540547   -1.837931   -0.579030
C       1.317469   -0.610113   -0.094671
H       0.790556    1.776073    0.334479
H      -1.479870   -1.664375    1.650491
H      -2.703079   -3.548227    0.454811
H      -2.334519   -2.725482   -1.134650
H      -0.211889   -3.722106    0.926813
H       0.930647   -3.782223   -1.260989
H      -0.046557   -2.459847   -1.868917
H       2.575788   -2.150867   -0.692848
H       2.172648    0.008768    0.164900
