14

N      -0.026997   -1.154037   -0.005363
C       0.001590   -0.000301    0.001522
C      -0.011806    1.463885    0.010899
O       1.321424    1.927617    0.000240
C       1.449591    3.285139    0.005242
C       2.663886    3.943144   -0.006640
N       2.353114    5.264305    0.003991
N       1.038167    5.511027    0.021686
C       0.469482    4.303587    0.022710
H      -0.565531    1.821648   -0.869655
H      -0.547458    1.810353    0.907024
H       3.675337    3.574123   -0.021178
H       2.993638    6.039781   -0.000167
H      -0.606099    4.220830    0.035762
