22

C       0.695862   -0.011370   -1.346613
C       0.088748    0.051280    0.044442
C       0.964934   -0.346335    1.209478
C       0.617813    1.105817    0.992699
C      -1.356944   -0.398083    0.072080
C      -2.301021   -0.152963    1.286199
C      -3.221300    0.561248    0.300652
C      -2.522917    1.664321   -0.383337
N      -2.314488    0.291440   -0.886508
H       1.747069    0.292610   -1.332382
H       0.646437   -1.029510   -1.750441
H       0.158249    0.643109   -2.039626
H       0.501834   -0.852844    2.050467
H       1.976510   -0.675674    0.996478
H       1.391778    1.768808    0.620020
H      -0.051385    1.574171    1.705061
H      -1.378607   -1.457074   -0.207141
H      -2.714453   -1.080688    1.685441
H      -1.936249    0.450023    2.123158
H      -4.295247    0.420114    0.232404
H      -3.099845    2.269509   -1.076140
H      -1.710249    2.190220    0.107471
