21

C      -0.049105    1.502685    0.014796
C      -0.014893   -0.011483   -0.017298
C      -0.815870   -0.802956    1.006161
C       0.677278   -0.735267    1.110964
O       1.400188   -1.899643    0.841155
C       2.581177   -1.649042    0.084885
C       2.315362   -1.616346   -1.420139
O       1.502457   -0.545994   -1.860706
C       0.158148   -0.622971   -1.399060
H       0.827896    1.913761   -0.496883
H      -0.944302    1.891379   -0.485010
H      -0.051615    1.882987    1.041203
H      -1.409489   -0.263141    1.736446
H      -1.237245   -1.751667    0.691493
H       1.109464   -0.122528    1.904373
H       3.053201   -0.710107    0.407495
H       3.272639   -2.472409    0.300857
H       3.270815   -1.512165   -1.947869
H       1.865779   -2.578956   -1.715142
H      -0.179852   -1.667952   -1.407473
H      -0.444211   -0.068184   -2.127382
