17

O      -0.129798    1.486951   -0.050485
C       0.028998    0.075062   -0.008943
C      -1.371916   -0.522718    0.047415
C      -1.381019   -2.074732    0.017381
O      -0.698303   -2.562004   -1.146736
C      -0.670796   -2.623527    1.183275
C      -0.102855   -3.045656    2.152758
C      -2.776351   -2.549251    0.021708
C      -3.923347   -2.902566   -0.031838
H       0.745757    1.882454   -0.087078
H       0.552389   -0.301445   -0.898292
H       0.603121   -0.239845    0.874228
H      -1.887072   -0.178090    0.948962
H      -1.950434   -0.166776   -0.812277
H      -1.282115   -2.404276   -1.898122
H       0.398790   -3.432119    3.005683
H      -4.933158   -3.231145   -0.063323
