18

C       0.010681    1.462936    0.005281
C      -0.017067   -0.053783    0.041172
C       0.310178   -0.760981   -1.330214
C      -1.031059   -1.489998   -1.258444
C      -1.205970   -2.152791    0.076703
O      -0.133372   -2.679740    0.845310
C       0.684159   -1.766605    1.430128
N       0.806185   -0.539048    1.150790
C      -1.427969   -0.689672   -0.000857
H       1.038597    1.817391   -0.117633
H      -0.597845    1.848862   -0.818736
H      -0.375124    1.872843    0.944231
H       0.350329   -0.042823   -2.152836
H       1.211097   -1.379924   -1.349738
H      -1.645315   -1.780920   -2.102535
H      -2.070921   -2.796453    0.184058
H       1.275124   -2.236274    2.213501
H      -2.350276   -0.196899    0.280227
