25

C       0.230248    1.391184    0.124921
O      -0.080311    0.035425   -0.078306
C       0.695766   -0.560184   -1.095881
C       0.283567   -2.022480   -1.230750
C       1.069413   -2.733245   -2.312680
C       2.433594   -3.332570   -2.034225
C       1.268018   -4.234882   -2.373414
C       0.700379   -5.131720   -1.288548
C       1.254703   -4.871483   -3.751729
H       1.281015    1.531332    0.426625
H       0.054397    1.993211   -0.781422
H      -0.417323    1.761357    0.923859
H       0.546008   -0.028810   -2.052619
H       1.770431   -0.487783   -0.855177
H       0.423685   -2.505669   -0.258751
H      -0.791386   -2.060196   -1.447336
H       0.969304   -2.262772   -3.289860
H       3.224225   -3.200935   -2.766069
H       2.779654   -3.323729   -1.004532
H       0.760353   -4.677834   -0.296519
H      -0.351782   -5.372483   -1.482856
H       1.251806   -6.078607   -1.249452
H       1.841529   -5.797971   -3.763489
H       0.233320   -5.123669   -4.061699
H       1.676423   -4.201286   -4.507435
