20

O      -0.422149    0.501392    0.763592
C      -0.177008    1.553725    0.220510
C       1.211570    2.044723   -0.036593
C       1.402623    3.069981   -1.137692
C       1.214105    2.478082   -2.520405
C      -0.146196    2.444610   -3.177676
C       0.929961    3.363565   -3.703619
C       2.087365    2.034209    1.186858
N       2.277684    1.044182    0.135921
H      -0.991264    2.231816   -0.111523
H       0.700225    3.901291   -0.986244
H       2.410296    3.490969   -1.049278
H       1.851888    1.618953   -2.707285
H      -0.416524    1.573721   -3.764230
H      -0.981563    2.900660   -2.655420
H       0.814542    4.427842   -3.524094
H       1.396684    3.123786   -4.652477
H       2.863955    2.790484    1.266014
H       1.638641    1.720011    2.125040
H       1.828549    0.173599    0.424081
