15

N       0.338399    1.182461    0.487208
C      -0.080839   -0.150834    0.021084
C      -1.543389   -0.146013   -0.162147
N      -2.679914   -0.132859   -0.368250
C       0.593817   -0.656050   -1.233302
C       1.844815   -1.214690   -1.417721
C       1.953317   -1.393260   -2.812415
N       0.859831   -0.986151   -3.451725
N       0.054488   -0.535192   -2.474276
H       1.337294    1.155058    0.672136
H       0.207124    1.857452   -0.261936
H       0.142065   -0.853880    0.831983
H       2.567230   -1.458546   -0.655031
H       2.778788   -1.805289   -3.373815
H      -0.877192   -0.225264   -2.703765
