19

C       0.158194    1.244116    0.757528
C       0.015308   -0.097409    0.026894
C      -1.379227   -0.699269    0.121791
C      -2.487120    0.074935   -0.580714
C      -3.888770   -0.530006   -0.471699
C      -1.500312   -2.142646    0.382739
O      -1.705602   -1.192978    1.433848
H       1.198392    1.582650    0.741128
H      -0.449536    2.030374    0.299673
H      -0.149309    1.142451    1.802617
H       0.281215    0.019068   -1.031704
H       0.726347   -0.812914    0.453482
H      -2.504487    1.087929   -0.160548
H      -2.204748    0.191874   -1.635185
H      -4.637644    0.170835   -0.851349
H      -3.982059   -1.453554   -1.051372
H      -4.127091   -0.754667    0.571417
H      -2.387530   -2.692003    0.075290
H      -0.597154   -2.746378    0.469780
