17

C      -0.095445    1.422559    0.035367
N      -0.039235   -0.020950    0.010891
N       0.000029   -0.723570   -1.168382
C       0.039764   -1.978361   -0.759367
C       0.118572   -3.143311   -1.701438
N       1.314406   -3.982719   -1.547768
N       0.035452   -2.140295    0.604934
C      -0.014867   -0.897885    1.029422
O      -0.043250   -0.478830    2.301092
H       0.781405    1.843421   -0.463872
H      -0.996628    1.774520   -0.473791
H      -0.114008    1.749837    1.075440
H      -0.758698   -3.783919   -1.554149
H       0.075668   -2.762565   -2.725547
H       2.140973   -3.407414   -1.689898
H       1.364416   -4.295325   -0.581237
H      -0.026439   -1.270604    2.853220
