17

C      -0.174841    1.482309   -0.162912
C       0.025709   -0.012226   -0.064984
C       1.339979   -0.671055   -0.262226
N       2.514144    0.054632   -0.587360
C       0.691389   -0.641921    1.192979
C       1.309601    0.213004    2.159762
C       1.868377    0.942406    2.936914
C       0.132500   -1.872353    1.679670
N      -0.316632   -2.880944    2.028575
H       0.619494    2.042834    0.334285
H      -0.206394    1.787919   -1.213360
H      -1.119866    1.770876    0.305974
H      -0.823758   -0.595535   -0.407817
H       1.321504   -1.662955   -0.701899
H       2.563053    0.943165   -0.101802
H       3.345477   -0.471103   -0.337833
H       2.336231    1.576734    3.648931
