12

N       0.005242    1.317079    0.007348
C      -0.057627   -0.016255    0.000687
N      -1.189804   -0.673844    0.003870
C      -1.077143   -2.018752   -0.003977
F      -2.229550   -2.661497   -0.000147
N      -0.020995   -2.762409   -0.013983
N       1.142688   -2.042484   -0.016995
C       1.272250   -0.688287   -0.010650
O       2.333356   -0.078987   -0.013675
H       0.922861    1.735456    0.004309
H      -0.832275    1.873277    0.015373
H       1.985531   -2.599979   -0.024827
