13

O       0.246418    1.337871    0.054575
C       0.087577    0.006041    0.052481
N       0.105677   -0.752435   -1.034245
N      -0.083569   -1.982641   -0.550432
N      -0.239936   -2.080455    0.765486
C      -0.125296   -0.823404    1.174703
O      -0.232820   -0.406847    2.456098
C       0.085326   -1.291272    3.450161
N      -0.166928   -0.970457    4.639036
H       0.362785    1.623234   -0.860216
H      -0.134204   -2.786868   -1.150999
H       0.548638   -2.206746    3.074169
H       0.148004   -1.704840    5.269975
