21

C       0.307444    1.329729   -0.220509
O       0.339061   -0.074081   -0.125180
C       0.434405   -0.530140    1.206430
C       0.457220   -2.045633    1.199317
C      -0.610788   -2.696334    0.345994
O       1.760333   -2.648907    1.097368
C       1.031813   -2.803632    2.326943
C       1.697559   -2.234305    3.557079
O       2.812738   -3.028228    3.928175
H       1.221956    1.787680    0.188114
H       0.228946    1.583125   -1.280248
H      -0.557002    1.756082    0.313389
H       1.344253   -0.137063    1.680124
H      -0.432069   -0.177311    1.794715
H      -0.515853   -2.364521   -0.689885
H      -0.516634   -3.783878    0.382779
H      -1.609619   -2.417318    0.698998
H       0.649290   -3.815516    2.478971
H       1.989585   -1.187680    3.399795
H       1.003097   -2.266060    4.403985
H       3.392968   -3.063763    3.158898
