20

C      -0.277904    1.366958   -0.226413
C       1.154485    1.428675    0.237894
C       0.500826    0.089027   -0.013111
C       0.153088   -0.763763    1.172367
C      -0.636141   -2.049118    1.281075
C      -0.237650   -3.191698    0.304832
N       0.820150   -2.722513   -0.627942
C       1.163148   -3.132145    0.759005
C       0.824991   -1.987077    1.754747
H      -1.052871    1.617414    0.491606
H      -0.508712    1.662194   -1.244182
H       1.913713    1.766651   -0.458990
H       1.339687    1.720601    1.267148
H       0.810349   -0.443878   -0.897366
H      -0.145213   -0.126451    2.009328
H      -1.526263   -2.122885    1.894305
H      -0.861672   -4.041245    0.059798
H       1.048778   -3.514921   -1.228911
H       1.875466   -3.924797    0.947362
H       1.189441   -2.006903    2.774829
