19

C      -0.083036    1.548587   -0.026498
N      -0.018280    0.110138    0.120380
C      -1.259100   -0.649597    0.377750
C      -0.480673   -1.580207    1.324093
C       0.489864   -2.593119    0.648138
C       1.682919   -1.606732    0.839750
C       0.674845   -0.512941    1.280528
C       1.003521    0.355565    2.394207
N       1.264963    1.057124    3.276776
H       0.925675    1.957805   -0.138282
H      -0.643810    1.783754   -0.936906
H      -0.569403    2.060903    0.821352
H      -2.022562   -0.065066    0.915828
H      -1.714387   -1.092577   -0.515780
H      -0.956219   -1.887544    2.252508
H       0.598028   -3.541047    1.177787
H       0.239550   -2.803803   -0.393855
H       2.347445   -1.906701    1.653901
H       2.272613   -1.349224   -0.041299
