17

C      -0.047967    1.529152    0.067174
C      -0.090387    0.006911   -0.084133
C       0.821787   -0.488678   -1.204157
N       0.750864   -1.940590   -1.322752
C       1.364089   -2.586938   -2.340978
N       1.863220   -2.042650   -3.423550
O       2.304653   -3.129489   -4.144634
N       2.056575   -4.275484   -3.437695
N       1.493060   -3.971133   -2.353523
H       0.965004    1.879045    0.292657
H      -0.375351    2.027237   -0.851424
H      -0.703086    1.860123    0.877602
H       0.211022   -0.464961    0.861216
H      -1.114875   -0.325994   -0.286869
H       0.514001   -0.060441   -2.164005
H       1.856912   -0.157317   -1.029287
H       0.678571   -2.474779   -0.470157
