10

N       0.035460    1.327496    0.009143
C       1.299450    1.872800   -0.000107
C       2.130907    0.772068   -0.014115
O       3.387212    0.370530   -0.028350
N       3.231543   -1.194171   -0.035832
N       2.032946   -1.468679   -0.024897
C       1.258373   -0.329963   -0.011554
N      -0.033155   -0.011417    0.002629
H      -0.830126    1.843469    0.020357
H       1.460686    2.936492    0.004115
