20

C      -0.309933    1.495073   -0.208802
C       0.023149   -0.001861    0.003419
C       0.837154   -0.202596    1.303171
C      -1.252314   -0.723868    0.155293
N      -2.251105   -1.281576    0.319831
C       0.787700   -0.548200   -1.226474
C       2.190160   -0.013909   -1.443116
C       0.434879   -1.849694   -1.816456
O      -0.007840   -0.621508   -2.410974
H       0.606543    2.089986   -0.234727
H      -0.849095    1.634018   -1.148238
H      -0.931508    1.866158    0.609832
H       0.253001    0.119496    2.168685
H       1.105245   -1.253220    1.443952
H       1.753338    0.391894    1.271391
H       2.877832   -0.356924   -0.664805
H       2.559594   -0.367783   -2.408017
H       2.210629    1.079488   -1.459105
H       1.190893   -2.391471   -2.383180
H      -0.350994   -2.459996   -1.379229
