19

O       0.056761    0.006308    0.086745
C      -0.002790    1.196023   -0.030421
C      -1.158795    2.184027   -0.273346
C      -0.071453    3.257229   -0.632056
C      -0.143168    4.617718   -0.016004
C       0.768586    5.070385    0.845605
C       1.917458    4.226597    1.342345
C       1.563932    2.732584    1.305785
C       1.051593    2.313761   -0.084714
H      -1.877965    1.897538   -1.044397
H      -1.703918    2.412079    0.648433
H       0.000267    3.347884   -1.721626
H      -0.966849    5.257626   -0.325638
H       0.692521    6.085232    1.227576
H       2.817647    4.420486    0.740564
H       2.176808    4.518273    2.366527
H       2.419941    2.112346    1.587126
H       0.784004    2.550188    2.055295
H       1.889274    2.127380   -0.763298
