14

O       0.030951   -0.043793    0.114762
C      -0.001139    1.133504   -0.063299
O       1.073795    1.919547    0.261408
C       0.978582    3.287124    0.151869
N      -0.212659    3.855146    0.220334
C      -0.259920    5.191122    0.134126
C       0.866986    5.989167   -0.001431
C       2.113414    5.363673   -0.060833
C       2.181252    3.981412    0.011332
H      -0.831861    1.707062   -0.492968
H      -1.251201    5.632943    0.187910
H       0.773013    7.067027   -0.054810
H       3.021159    5.948166   -0.165877
H       3.115978    3.437521   -0.035747
