21

C      -0.024494    1.539058    0.100492
C      -0.014030    0.010858    0.020711
C       0.702704   -0.498371   -1.236357
N       0.752447   -1.948519   -1.319282
C       1.766939   -2.737684   -0.823473
C       1.400096   -4.054346   -0.958703
C       0.116687   -4.073886   -1.572608
C      -0.259163   -2.763821   -1.780750
N      -1.443572   -2.181756   -2.293023
H       0.992546    1.946369    0.132554
H      -0.529477    1.978970   -0.766881
H      -0.547481    1.883690    0.997350
H       0.478487   -0.412852    0.903709
H      -1.038585   -0.375094    0.011085
H       0.198224   -0.112735   -2.126841
H       1.733713   -0.129045   -1.262594
H       2.663277   -2.286211   -0.428211
H       1.993125   -4.909083   -0.671392
H      -0.461728   -4.943024   -1.848452
H      -2.222416   -2.819748   -2.182852
H      -1.369337   -1.967584   -3.284299
