19

O      -0.063194    1.400023   -0.029402
C      -0.075148    0.016560    0.002970
C      -0.417006   -0.817672   -1.198793
C      -1.279833   -0.917182    0.039651
C      -0.579159   -1.806732    1.073348
C       0.623098   -0.797056    1.101966
C       2.051600   -1.302639    0.860619
C       2.554724   -2.116029    2.030174
O       2.876340   -3.275480    1.980283
H       0.557133    1.686400   -0.707891
H      -0.860794   -0.247079   -2.008956
H       0.194630   -1.657848   -1.520938
H      -2.334250   -0.673549    0.018323
H      -1.098060   -1.876459    2.031147
H      -0.335988   -2.817975    0.731148
H       0.590038   -0.218099    2.031113
H       2.118307   -1.915264   -0.042909
H       2.715891   -0.433463    0.745362
H       2.594304   -1.553584    2.993686
