12

O      -0.077691    0.007201   -0.100925
C      -0.096552    1.188192    0.022126
C      -1.136768    2.271994   -0.094460
N      -0.929081    3.134599    1.118482
C      -0.062323    3.324910   -0.037841
C       1.061858    2.281895    0.101910
C       1.928147    2.344397    1.261783
N       2.626192    2.389614    2.181914
H      -2.087725    2.249897   -0.609458
H      -1.663950    3.841379    1.094508
H      -0.008381    4.252546   -0.590632
H       1.655107    2.183626   -0.813501
