11

N       0.012842    1.325405    0.139059
C      -0.004286   -0.029481    0.042151
N      -1.113762   -0.748744   -0.005810
O      -0.630024   -2.072016   -0.030366
C       0.683140   -1.962271   -0.005270
N       1.162537   -0.767247    0.037748
N       1.460172   -3.206487   -0.031230
O       0.816007   -4.241779   -0.051319
O       2.670544   -3.083469   -0.030431
H       0.867654    1.773260   -0.149511
H      -0.839502    1.806128   -0.101532
