21

C       0.091689    1.519028   -0.264399
C      -0.121278    0.008638   -0.218954
C      -1.519990   -0.401912    0.211648
O      -2.408590    0.401095    0.379228
C      -1.738586   -1.899236    0.452724
C      -3.163052   -2.326506    0.184385
O      -3.438875   -2.863577   -1.116383
C      -3.587952   -3.725063    0.018753
C      -2.675345   -4.921749    0.114429
H       1.101660    1.757800   -0.608733
H      -0.627313    1.990726   -0.938293
H      -0.050261    1.964115    0.724107
H       0.054005   -0.447037   -1.204596
H       0.599645   -0.483368    0.449048
H      -1.034442   -2.487103   -0.141168
H      -1.487769   -2.075716    1.509653
H      -3.900963   -1.604122    0.531108
H      -4.631364   -3.942449    0.258950
H      -1.636858   -4.664338   -0.103302
H      -2.723571   -5.356388    1.118989
H      -2.988873   -5.692789   -0.597030
