16

N       0.051165    1.203547    0.014278
C       0.049079   -0.052479   -0.026259
C      -0.974806   -0.939695   -0.698666
C      -0.720698   -2.311372   -0.057233
C       0.760950   -2.216992    0.305801
O       1.525847   -2.639716   -0.819262
C       2.834669   -2.919976   -0.603421
O       3.578241   -3.213876   -1.486496
O       1.011469   -0.851586    0.572490
H       0.867050    1.553961    0.518525
H      -1.982510   -0.551206   -0.554386
H      -0.772215   -0.962094   -1.773985
H      -1.306151   -2.430769    0.858371
H      -0.915147   -3.159899   -0.712767
H       1.062510   -2.784758    1.190742
H       3.116934   -2.858806    0.464352
