21

C       0.414547    1.333242    0.057413
C      -0.155741   -0.076443    0.052193
O      -0.585453   -0.583819    1.062448
C      -0.151215   -0.798756   -1.293729
C       1.282740   -1.006627   -1.864527
C       1.122946   -2.241950   -2.760756
C       0.224449   -3.165990   -1.921524
O       0.962451   -3.781150   -0.866465
C      -0.789360   -2.211069   -1.263582
H       1.475062    1.317080   -0.216731
H      -0.095241    1.957830   -0.684652
H       0.303238    1.771735    1.049671
H      -0.696906   -0.152081   -1.993848
H       1.663462   -0.129945   -2.394197
H       1.977019   -1.240618   -1.050664
H       0.607205   -1.973737   -3.691752
H       2.074263   -2.711541   -3.034185
H      -0.270416   -3.932752   -2.533757
H       1.637792   -4.339688   -1.265129
H      -0.982954   -2.524100   -0.236297
H      -1.739187   -2.222589   -1.804053
