16

O      -0.019058    1.485611   -0.152394
C      -0.119826    0.096079    0.010306
C      -0.484999   -0.685366    1.257360
C      -1.680932   -0.151498    2.090725
C      -2.303938    1.131209    1.595862
C      -2.569381   -0.156716    0.862236
C      -1.382553   -0.695671    0.010198
O      -1.584622   -1.754548   -0.858908
H       0.744054    1.782762    0.355939
H       0.640463   -0.456827   -0.548818
H       0.172141   -1.462111    1.629282
H      -1.906912   -0.559969    3.066971
H      -3.143767    1.463668    2.201252
H      -1.716733    1.921004    1.152024
H      -3.552676   -0.596475    0.758257
H      -1.853073   -1.393073   -1.712195
