17

O      -0.011728   -0.004819   -0.019316
C       0.038259    1.188756    0.004837
O      -1.091960    1.967896    0.157428
C      -0.823753    3.404945    0.084255
C       0.550726    3.481608   -0.577893
C       1.967375    3.862851   -0.018641
C       1.692628    2.940180    1.193118
C       1.171741    2.169892   -0.072371
C       2.496881    2.579297   -0.771627
H      -1.622546    3.838526   -0.520256
H      -0.885175    3.820286    1.093170
H       0.463337    3.553713   -1.666173
H       2.438691    4.846544   -0.011310
H       2.562690    2.497915    1.681972
H       0.958673    3.270324    1.927969
H       2.479027    2.606910   -1.863334
H       3.419909    2.140238   -0.388436
