20

C       0.321776    1.507817   -0.062701
C       0.109518   -0.007065   -0.003682
C       0.630318   -0.727559   -1.251829
C       0.405892   -2.234258   -1.212993
O       0.848833   -2.882399   -2.387614
C       2.121425   -3.447865   -2.121832
C       2.189659   -3.527664   -0.612705
N       3.066912   -4.129148    0.061704
O       1.126703   -2.829249   -0.123508
H       1.385538    1.755202   -0.148730
H      -0.190367    1.947647   -0.925580
H      -0.061712    1.996820    0.837819
H       0.607690   -0.419627    0.880585
H      -0.960290   -0.223359    0.118034
H       0.126814   -0.349669   -2.149964
H       1.703271   -0.537079   -1.383398
H      -0.655549   -2.472313   -1.072402
H       2.186885   -4.436325   -2.582455
H       2.939536   -2.825983   -2.511432
H       2.898318   -4.020276    1.062575
