10

F       0.035133    0.116142   -0.318423
C      -0.032075    1.392920   -0.026981
N      -1.206759    1.866989    0.160294
O      -1.242206    3.236638    0.471025
C      -0.105029    3.999350    0.564822
N      -0.109062    5.231353    0.842420
C       1.138131    3.253104    0.311757
F       2.239811    3.940790    0.391092
N       1.191499    2.014665    0.029312
H      -1.059458    5.577985    0.985525
