25

C       0.493925    0.932570    0.507733
O       0.366162   -0.400346    0.076393
C       0.545986   -0.580499   -1.326463
C       2.035483   -0.575670   -1.756188
C       2.469478   -2.055485   -1.747449
C       2.864542   -2.532552   -0.342353
C       1.211296   -2.747627   -2.335447
C       1.136314   -4.267694   -2.198628
C       0.029498   -1.994157   -1.683478
H       1.504240    1.337907    0.346387
H      -0.223392    1.594112   -0.004354
H       0.283022    0.947640    1.580242
H      -0.015105    0.208348   -1.849498
H       2.110625   -0.175071   -2.774360
H       2.650025    0.062210   -1.113771
H       3.325917   -2.210366   -2.414455
H       2.058394   -2.375670    0.379753
H       3.135028   -3.592890   -0.335407
H       3.734371   -1.970388    0.014461
H       1.206881   -2.509504   -3.408710
H       1.091078   -4.576541   -1.149249
H       0.241360   -4.659771   -2.693976
H       2.005438   -4.754328   -2.655098
H      -0.278171   -2.477920   -0.751109
H      -0.849315   -1.963910   -2.333481
