20

N       0.144014    1.133484   -0.629050
C       0.063388   -0.021388    0.093063
O       0.999600   -0.448230    0.744366
C      -1.290907   -0.724374    0.062002
C      -1.126472   -2.217080   -0.281594
C      -2.451802   -2.965881   -0.089553
C      -3.029560   -2.677939    1.296698
O      -3.184833   -1.283883    1.514466
C      -1.952952   -0.594941    1.451366
H       1.017946    1.634061   -0.635150
H      -0.613663    1.470105   -1.195522
H      -1.954990   -0.250437   -0.671947
H      -0.760240   -2.333337   -1.307514
H      -0.355171   -2.628279    0.379333
H      -3.177636   -2.646620   -0.847880
H      -2.305406   -4.044866   -0.213643
H      -4.024548   -3.116682    1.414416
H      -2.373736   -3.107741    2.073601
H      -1.249678   -0.974527    2.209427
H      -2.174032    0.451381    1.682863
