21

C       1.082971    2.208092    2.952132
C       0.529208    0.822586    2.634420
C      -0.152582    0.501283    1.258128
C       0.715430   -0.760280    1.138215
C       2.179490   -0.428234    1.101078
C       2.797262    0.731700    0.326545
C       4.098082    1.181083    0.951474
O       4.311301    2.287274    1.379301
C       1.462291   -0.384207    2.429814
H       1.850513    2.540541    2.250042
H       0.277403    2.951448    2.952914
H       1.536364    2.216591    3.949914
H      -0.184637    0.552497    3.420248
H      -1.218176    0.285196    1.357437
H      -0.031733    1.243416    0.462211
H       0.349533   -1.731257    0.825149
H       2.787792   -1.329744    1.032609
H       3.017428    0.382943   -0.693115
H       2.132883    1.592509    0.247908
H       4.881457    0.389085    1.010363
H       1.783394   -1.038887    3.233086
