19

C       0.116621    1.568687    0.327141
C      -0.011459    0.055547    0.133004
C       0.919033   -0.746545    1.049613
O       0.696738   -0.460789    2.427781
C       0.817805   -2.251330    0.784723
O       1.835825   -2.979506    1.456006
C       1.598383   -3.358213    2.728682
N       2.516974   -3.897138    3.404743
H       1.122794    1.912057    0.064676
H      -0.597584    2.108690   -0.300928
H      -0.063092    1.843565    1.369729
H      -1.049605   -0.260098    0.318338
H       0.203457   -0.209479   -0.909507
H       1.959054   -0.448417    0.870315
H      -0.247741   -0.552325    2.600024
H      -0.178210   -2.618958    1.076670
H       0.954412   -2.460284   -0.280464
H       0.568642   -3.168275    3.056325
H       2.164980   -4.148343    4.326007
