11

C      -0.016080    1.487484    0.001735
N       0.002242    0.026092    0.009746
C      -0.084030   -0.675464    1.203910
O      -0.177572   -0.168372    2.292715
C       0.107140   -0.653954   -1.192767
O       0.185769   -0.110137   -2.265122
H       0.904070    1.868216   -0.446561
H      -0.862185    1.845228   -0.588780
H      -0.103521    1.819914    1.034536
H      -0.057003   -1.768013    1.043009
H       0.110716   -1.750993   -1.059573
