17

O       0.068224    1.427411    0.058191
C       0.052931    0.032113    0.050690
C       0.130824   -0.654655    1.482198
C      -1.370579   -0.740208    1.367866
C      -2.465053   -0.228109    1.942686
C      -3.374717    0.266378    0.863335
O      -2.784718    1.407747    0.165424
C      -2.667890    0.110640   -0.435834
C      -1.378934   -0.629996   -0.140605
H      -0.809587    1.734129    0.332877
H       0.818713   -0.306586   -0.652285
H       0.641353   -1.621366    1.425200
H       0.552910   -0.053975    2.289636
H      -2.601939    0.015213    2.988990
H      -4.454366    0.327176    0.952587
H      -3.193250   -0.000852   -1.379254
H      -1.308335   -1.573461   -0.689347
