18

C       0.080530    1.497699   -0.087674
C      -0.045207   -0.017953    0.065997
C      -1.516336   -0.456970    0.092301
O       0.550299   -0.558644   -1.161715
C       1.093137   -1.790038   -1.232330
O       1.325521   -2.319629   -2.288307
N       1.402499   -2.375726   -0.015131
C       1.364170   -1.674422    1.187620
C       0.702548   -0.523630    1.272330
H       1.131974    1.789780   -0.143477
H      -0.423871    1.829034   -0.999025
H      -0.377877    2.002168    0.768219
H      -2.027769   -0.125265   -0.816257
H      -1.592180   -1.545545    0.161455
H      -2.024531   -0.024947    0.959942
H       1.922725   -3.233734   -0.092799
H       1.904259   -2.126778    2.010517
H       0.671087    0.046369    2.191032
