19

C      -0.118399    1.510806    0.013795
C       0.071991    0.022639    0.010253
C       1.006011   -0.771121   -0.939517
C       0.733918   -1.905906    0.073905
C       0.689848   -0.826752    1.188592
O      -0.190467   -1.213013    2.216700
C      -1.096840   -2.163692    1.627012
C      -0.813082   -2.020643    0.133459
O      -1.186653   -0.661895   -0.190741
H       0.842499    2.021737    0.123582
H      -0.583429    1.842543   -0.920009
H      -0.768103    1.805810    0.843337
H       0.660917   -0.891267   -1.967958
H       2.045609   -0.435466   -0.912169
H       1.317909   -2.821821    0.145544
H       1.630377   -0.462723    1.600766
H      -0.891893   -3.173838    2.012321
H      -2.126397   -1.884535    1.868619
H      -1.312108   -2.731521   -0.526591
