19

C      -0.336429    1.528117    0.173365
C      -0.035058    0.031919    0.017621
C       0.782134   -0.379052   -1.219391
C       1.624423    0.511101   -2.209539
C       2.860479   -0.431763   -1.931692
C       2.116299   -0.805753   -0.678297
C       2.196296   -0.825718    0.655708
C       0.865842   -0.443215    1.204633
O       0.538962   -0.392870    2.367584
H       0.577887    2.129180    0.132762
H      -1.010586    1.880614   -0.612866
H      -0.806371    1.703938    1.144804
H      -0.981652   -0.515878    0.070062
H       0.286679   -1.167153   -1.796620
H       1.272801    0.573112   -3.241331
H       1.803700    1.514719   -1.820333
H       2.904867   -1.243275   -2.664785
H       3.852338    0.012007   -1.825801
H       3.067421   -0.956696    1.284236
