19

C       0.668393    1.541999   -0.381896
C       0.169588    0.151970    0.024300
C       0.240894   -0.849476   -1.126194
O       1.503366   -0.853477   -1.804220
C       1.241183   -1.891133   -0.851581
C       1.900093   -1.632463    0.491057
C       0.990350   -0.557322    1.172495
C       1.705432    0.328044    2.078428
C       2.306601    1.047827    2.831404
H       1.690982    1.490665   -0.762164
H       0.034468    1.955438   -1.173232
H       0.648151    2.227266    0.468455
H      -0.872194    0.237181    0.352628
H      -0.624625   -1.009379   -1.765835
H       1.184593   -2.895754   -1.263905
H       1.960623   -2.535767    1.103956
H       2.917297   -1.260109    0.342814
H       0.253462   -1.110951    1.767809
H       2.836791    1.684808    3.495196
