16

C       0.607725   -0.888134    0.568787
C       0.252854    0.222510    0.275611
C      -0.210711    1.562103   -0.097578
C      -0.932523    2.305754    1.070863
C       0.114090    3.282741    1.576790
C       1.493517    2.731478    1.902027
C       1.193172    3.289412    0.536219
O       0.877070    2.402315   -0.508461
H       0.928780   -1.868074    0.823379
H      -0.870980    1.463033   -0.966396
H      -1.794195    2.856951    0.682421
H      -1.290342    1.600047    1.823801
H      -0.221845    4.192336    2.060140
H       2.118816    3.333068    2.553559
H       1.623462    1.660664    2.010403
H       1.684839    4.181312    0.166733
