21

C       0.045134    1.574908   -0.013211
C       0.062763    0.043600   -0.007530
C       0.785666   -0.530933   -1.238637
C       0.968315   -2.020156   -1.148542
C       0.864970   -2.700043   -0.007569
C       0.594561   -2.055970    1.324001
O       1.505593   -2.547465    2.325084
C       0.690346   -0.513249    1.274398
O       2.047684   -0.107163    1.321980
H       1.061172    1.970592    0.069221
H      -0.400828    1.959232   -0.936668
H      -0.537003    1.964977    0.828396
H      -0.974372   -0.320269   -0.029887
H       0.229191   -0.277920   -2.149669
H       1.768684   -0.051628   -1.341904
H       1.190800   -2.552280   -2.070869
H       0.982649   -3.782336    0.006791
H      -0.407170   -2.334349    1.679682
H       2.269879   -2.903273    1.859893
H       0.149895   -0.111012    2.147503
H       2.436122   -0.621331    2.041218
