18

C       0.149177    1.467570    0.095468
C      -0.057546   -0.054563    0.010217
C      -1.543965   -0.389564   -0.133526
C       0.779863   -0.636251   -1.153239
O       2.095776   -0.869707   -0.629061
C       2.057864   -0.979326    0.729884
O       3.032509   -1.221185    1.378765
C       0.625737   -0.752663    1.200824
H       1.211874    1.724148    0.156678
H      -0.266778    1.967842   -0.785385
H      -0.347159    1.878022    0.980742
H      -1.958994    0.046868   -1.049093
H      -1.708571   -1.471547   -0.171730
H      -2.118487    0.008220    0.709280
H       0.369022   -1.588816   -1.510792
H       0.874442    0.045864   -2.001935
H       0.616892   -0.184962    2.132874
H       0.179888   -1.733725    1.405291
