14

O       0.113035    1.434654   -0.073274
C       0.095620    0.050895   -0.079316
C       0.040420   -0.681278    1.301608
O      -1.349156   -0.146901    1.446953
C      -1.292635   -0.659004    0.042616
C      -0.558218   -1.888006    0.578682
C      -0.109023   -3.179644    0.080208
O      -1.099192   -3.044190    1.131024
H      -0.526246    1.692131    0.608177
H       0.799000   -0.314103   -0.830531
H       0.698980   -0.617292    2.166372
H      -2.192232   -0.568981   -0.564208
H      -0.490027   -3.564084   -0.864108
H       0.848519   -3.586453    0.400069
