21

C       0.344505    1.551051   -0.152425
C       0.141893    0.066921    0.068370
O       0.966900   -0.755848   -0.799199
C       1.305446   -1.653974    0.283779
C       0.896260   -3.076394   -0.001550
C       2.708679   -1.361022    0.870533
O       3.669920   -1.007468   -0.089057
C       2.092234   -0.253065    1.785204
C       0.668840   -0.664707    1.317996
H       1.391212    1.840247   -0.032685
H       0.039968    1.816388   -1.169876
H      -0.267898    2.130175    0.547483
H      -0.919330   -0.178640   -0.096169
H       1.461777   -3.459174   -0.858509
H       1.094374   -3.725345    0.857738
H      -0.168685   -3.135553   -0.245460
H       3.040976   -2.219633    1.474818
H       4.515335   -0.899216    0.357391
H       2.277369   -0.393047    2.852760
H       2.393290    0.759507    1.509619
H      -0.050509   -0.955446    2.082735
