19

O      -0.142944    1.426813   -0.091157
C      -0.075924    0.033621   -0.112910
C       0.757880   -0.625120   -1.220815
C       0.200061   -2.033176   -1.198790
C      -0.900506   -2.106303   -0.433628
C      -1.006848   -3.036587    0.748623
C      -0.205942   -2.105100    1.741581
C      -0.471234   -0.656552    1.249764
C      -1.343304   -0.729451    0.024546
H       0.698848    1.760912    0.236609
H       0.626498   -0.059510   -2.153784
H       1.837152   -0.650861   -1.015052
H       0.810553   -2.893194   -1.457452
H      -2.029650   -3.194583    1.105081
H      -0.526351   -4.006308    0.600832
H      -0.556224   -2.208896    2.774970
H       0.853927   -2.379203    1.724136
H      -0.679006    0.096612    2.004292
H      -2.348388   -0.338310   -0.085412
