16

O      -0.187617    1.378092   -0.071305
C       0.006626    0.001232   -0.042895
C      -0.191085   -0.766983    1.250132
C      -1.220601   -0.863433    0.146406
O      -2.420014   -0.123053    0.327576
C      -3.490924   -0.782589   -0.361602
C      -2.873043   -2.028157   -0.935989
C      -1.577654   -2.062033   -0.634201
H      -1.145668    1.512386   -0.035709
H       0.784702   -0.328864   -0.726458
H       0.433284   -1.631379    1.453476
H      -0.480586   -0.184231    2.118286
H      -4.301522   -0.993884    0.351305
H      -3.900821   -0.117094   -1.136620
H      -3.431011   -2.756247   -1.509564
H      -0.859427   -2.824095   -0.905505
