22

C       0.727697    0.877000   -0.394750
C       0.116727   -0.122827    0.598087
C      -0.090641    0.508991    1.983146
C      -1.207291   -0.636087    0.070573
O      -1.197909   -1.498389   -1.082100
C      -1.673884   -2.030320    0.160027
C      -0.867562   -3.150423    0.751963
C      -0.651874   -4.384970   -0.044634
N       0.463961   -3.457724    0.217191
H       1.702994    1.228649   -0.043770
H       0.862328    0.418317   -1.378578
H       0.081136    1.754231   -0.517383
H       0.800355   -0.970777    0.705837
H      -0.785535    1.355631    1.932192
H      -0.494866   -0.214098    2.698799
H       0.857202    0.882900    2.381823
H      -1.983597    0.132257    0.010464
H      -2.753986   -2.192070    0.188390
H      -0.951217   -3.240814    1.833725
H      -0.579731   -5.348438    0.451472
H      -1.067539   -4.413399   -1.048535
H       0.593898   -2.882957   -0.614581
