17

N      -0.082864   -1.189069    0.044836
C      -0.045071   -0.034567    0.050617
C      -0.007110    1.428120    0.040412
C       1.403626    1.992145    0.009425
C       1.702382    3.527341    0.087157
C       3.073868    2.922031    0.528557
N       2.315079    1.788504    1.217280
C       3.499498    2.193394   -0.752526
C       2.377743    1.566862   -1.104441
H      -0.559071    1.782925   -0.838362
H      -0.545435    1.800023    0.919854
H       1.656256    4.118684   -0.832023
H       1.168138    4.026515    0.903808
H       3.813421    3.470527    1.109163
H       1.836369    2.202422    2.025158
H       4.478329    2.200594   -1.207710
H       2.157254    0.898278   -1.923333
