21

C      -0.039384    1.571253    0.015487
C       0.073484    0.064738    0.066695
O      -1.088297   -0.593187   -0.391166
C       1.333633   -0.720495   -0.214060
C       2.593637   -0.047792    0.351270
C       1.925739   -0.052604    1.745162
C       2.604723   -0.418940    3.029694
C       2.025024    0.966815    2.845644
C       0.686311   -0.722830    1.189338
H       0.834518    2.066688    0.442113
H      -0.147427    1.913821   -1.021672
H      -0.924481    1.897449    0.570755
H      -1.166756   -0.421464   -1.336229
H       1.321238   -1.513988   -0.951837
H       3.469513   -0.701468    0.311354
H       2.864498    0.924753   -0.074547
H       2.092795   -1.100433    3.702048
H       3.684998   -0.527378    3.024082
H       2.717215    1.793059    2.716216
H       1.123776    1.221739    3.393827
H       0.116530   -1.508540    1.671840
