19

C      -0.074145    1.595087   -0.159170
C       1.473048    1.575221   -0.007704
C       1.356807    0.139810    0.562239
C      -0.083341    0.048541   -0.000251
C       2.431580   -0.956334    0.468849
C       3.170370   -0.434507    1.743392
O       3.200569   -1.730803    2.411645
C       1.901849   -1.678814    1.749466
C       1.661858   -0.163942    2.044298
H      -0.560942    2.095463    0.682206
H      -0.480510    2.004833   -1.086291
H       1.979787    1.589500   -0.978305
H       1.930046    2.337258    0.630134
H      -0.850916   -0.390620    0.643452
H      -0.112115   -0.462470   -0.968287
H       2.885825   -1.423688   -0.405709
H       4.034091    0.222860    1.834139
H       1.228420   -2.529255    1.847575
H       1.243289    0.267216    2.954508
