17

N       0.028169   -1.178370    0.230413
C      -0.007880   -0.026223    0.152422
C      -0.048045    1.429857    0.035234
C       1.353356    2.056266    0.040825
C       1.545441    3.578758   -0.109670
C       0.726316    4.178430    1.064256
C       1.692868    3.422280    1.973772
C       2.728486    3.365985    0.917245
N       2.078535    2.098699    1.351654
H      -0.557025    1.689228   -0.901439
H      -0.655879    1.826843    0.853009
H       1.996595    1.513558   -0.657676
H       1.577503    4.066254   -1.082147
H       0.896790    5.254604    1.147471
H      -0.348896    3.979474    1.116588
H       1.811008    3.482432    3.047011
H       3.796724    3.532692    0.897330
