14

O      -0.641714    0.845299   -0.570022
C       0.205038    0.971705    0.277943
C       1.388021    1.895466    0.162515
C       1.494644    2.732763   -1.150262
N       1.257422    3.929480   -0.317949
C       1.190596    3.283129    0.883571
O       1.036673    3.639424    2.015677
C       2.768480    2.695755   -1.847655
C       3.818480    2.666403   -2.431138
H       0.150798    0.419098    1.239289
H       2.309999    1.403442    0.479869
H       0.664235    2.520141   -1.829518
H       1.282332    4.913005   -0.544763
H       4.745248    2.640136   -2.949866
