21

C       0.042844    1.443706   -0.158897
C       0.076986   -0.010696   -0.113409
C       0.113461   -1.213234   -0.081928
C       0.133624   -2.673674   -0.019729
C      -1.265971   -3.246760    0.251001
O       0.671940   -3.157127   -1.251675
C       1.180678   -4.480914   -1.215512
C       2.025760   -4.642328   -2.471196
O       3.067783   -3.690408   -2.512597
H       0.747039    1.882245    0.556533
H       0.310982    1.810938   -1.155552
H      -0.955759    1.826947    0.077596
H       0.805345   -2.982571    0.799156
H      -1.229321   -4.336500    0.335968
H      -1.663600   -2.843085    1.186026
H      -1.941869   -2.976370   -0.564021
H       1.808445   -4.621491   -0.321338
H       0.373968   -5.229570   -1.194578
H       2.486253   -5.635910   -2.481125
H       1.371127   -4.564590   -3.354243
H       2.647613   -2.843913   -2.315812
