19

O       0.021772   -0.013639    0.547205
C      -0.022889    1.122949    0.137846
C      -1.384670    1.815213   -0.060439
O      -1.694238    2.245056   -1.372999
C      -0.776071    3.081426   -2.055745
C       0.516571    2.353639   -2.525252
C       1.239432    2.916171   -1.265175
C       0.121114    3.995339   -1.175903
C       1.258872    1.925465   -0.097393
H      -2.153183    1.087346    0.205358
H      -1.441596    2.652826    0.655143
H      -1.370873    3.570498   -2.830320
H       0.449012    1.267823   -2.636072
H       0.903843    2.782584   -3.453261
H       2.251114    3.299232   -1.419080
H       0.393128    4.898175   -1.728481
H      -0.242751    4.296312   -0.190380
H       1.460613    2.466876    0.839491
H       2.064346    1.194780   -0.216139
