19

O      -0.077241    1.428347   -0.009075
C       0.036340    0.008353    0.091597
C      -1.381574   -0.534017   -0.027794
O      -2.180384    0.044242    0.983895
C      -2.067110   -0.472945   -1.446815
C      -2.268478   -1.993419   -1.369237
O      -3.429779   -2.647282   -1.738577
C      -0.953180   -2.700219   -1.233893
C      -1.581084   -2.049759   -0.014261
H       0.754909    1.825002    0.262230
H       0.686476   -0.391287   -0.698009
H       0.449691   -0.287503    1.066704
H      -1.954164    0.983974    0.983223
H      -3.011161    0.066980   -1.364056
H      -1.484382   -0.087151   -2.290147
H      -3.348485   -2.910108   -2.661988
H      -1.031256   -3.783078   -1.229445
H      -0.042238   -2.317025   -1.687731
H      -1.835902   -2.612355    0.875092
