17

C      -0.081133    1.466885   -0.001293
N      -0.027170    0.024913    0.025795
C      -0.081983   -0.758927   -1.125475
O      -0.141204   -0.378467   -2.281654
N      -0.055798   -2.054128   -0.640630
C       0.006358   -2.089284    0.762637
C       0.029197   -3.346391    1.554673
C       0.024635   -0.799472    1.156629
O      -0.008389   -0.279771    2.412173
H       0.861282    1.918666    0.331329
H      -0.258848    1.754898   -1.038993
H      -0.891998    1.841380    0.630559
H      -0.101136   -2.849012   -1.253114
H       0.895207   -3.973544    1.307429
H       0.078610   -3.103396    2.618290
H      -0.870681   -3.952468    1.389850
H       0.842900    0.123089    2.622723
