17

C      -0.081402    1.545631   -0.008121
C       0.042796    0.026793    0.015458
C       1.100851   -0.598278   -0.925186
O       2.349249   -0.065261   -0.350939
C       2.176798   -0.081224    1.004329
O       3.012611    0.267944    1.784647
C       0.752457   -0.620215    1.250251
C       0.822347   -2.075681    0.790372
C       1.019297   -2.066289   -0.530900
H       0.887413    2.042145    0.089986
H      -0.536466    1.876481   -0.947389
H      -0.722961    1.889930    0.809252
H      -0.931847   -0.442001   -0.138896
H       1.091991   -0.336359   -1.980769
H       0.377707   -0.419615    2.250776
H       0.789869   -2.924178    1.460147
H       1.180113   -2.903222   -1.195780
