16

C       0.081819    1.524645   -0.054094
C       0.068530    0.024783   -0.105608
C       0.107331   -0.759702    1.195991
C       1.302347   -0.499209    1.988549
C       2.295238   -0.273462    2.642565
C       3.412712   -0.024446    3.378235
C       4.403394    0.197681    4.031897
N       0.000280   -0.695991   -1.157364
O      -0.080252    0.066607   -2.329267
H       0.379451    1.944609   -1.014356
H      -0.918768    1.904288    0.188277
H       0.762344    1.870868    0.728468
H      -0.780282   -0.507206    1.795063
H       0.036704   -1.825083    0.952966
H       5.275371    0.391409    4.605637
H      -0.074547   -0.612930   -3.011592
