21

C      -0.146812    1.522182    0.022138
C      -0.021480    0.031582   -0.023178
C      -0.044692   -0.746753   -1.111210
C       0.068071   -2.215849   -0.800069
O      -1.025233   -2.974590   -1.277691
C       1.422379   -2.891840   -1.109291
C       1.896866   -2.538580    0.327403
C       0.430028   -2.199219    0.730909
C       0.155437   -0.781769    1.249577
H       0.750781    1.980264    0.456645
H      -0.299494    1.949132   -0.972589
H      -0.987097    1.826577    0.659457
H      -0.164080   -0.388804   -2.129869
H      -1.827085   -2.465063   -1.116244
H       1.276136   -3.966686   -1.245471
H       1.999987   -2.501124   -1.950777
H       2.380749   -3.340864    0.887992
H       2.544924   -1.658114    0.355569
H      -0.048119   -2.994310    1.305329
H       0.984105   -0.399316    1.860670
H      -0.741255   -0.714430    1.882265
