16

C      -0.047607    1.568244    0.069523
C      -0.005057    0.038576   -0.006875
C       0.839377   -0.481656   -1.217093
O       2.105859   -0.753629   -0.646750
C       1.798349   -1.239769    0.634906
O       0.747498   -0.437160    1.127994
C      -1.352697   -0.534765   -0.007212
C      -2.463031   -0.994049   -0.029048
H       0.971040    1.959686    0.000754
H      -0.651415    1.980338   -0.743829
H      -0.482339    1.881576    1.021323
H       0.387654   -1.390039   -1.637757
H       0.959423    0.266770   -2.002082
H       1.486518   -2.298921    0.586921
H       2.673039   -1.129163    1.281383
H      -3.443397   -1.402869   -0.038394
