14

O      -0.006425    1.373349   -0.039477
C       0.032351   -0.018182    0.005571
C       1.008622   -0.546475   -0.957238
N       1.821328   -0.878895   -1.709348
C      -0.040040   -0.673396    1.461025
O      -1.430797   -0.244388    1.484146
C      -1.417593   -0.634861    0.081023
C      -1.099198   -2.130170    0.156468
C      -0.154672   -2.154307    1.104117
H       0.887896    1.712628   -0.155571
H       0.568915   -0.322836    2.291816
H      -2.236955   -0.245155   -0.518844
H      -1.518175   -2.918638   -0.449637
H       0.432022   -2.969912    1.498610
