16

O      -0.110594    1.373915    0.041850
C       0.025390    0.013435   -0.015209
C       0.396269   -0.996810    1.126331
N      -1.041320   -1.120621    1.531391
C      -1.080353   -1.102812    0.030303
C       0.275674   -1.855399   -0.174259
C       0.880184   -0.738124   -1.064253
C       0.426331   -0.642474   -2.495558
O      -0.555541   -1.194277   -2.930459
H      -0.707425    1.574580    0.774600
H       1.227120   -0.945321    1.831089
H      -1.236308   -2.061589    1.883326
H      -1.992648   -1.187775   -0.555039
H       0.412727   -2.930504   -0.265343
H       1.958206   -0.565666   -0.973177
H       1.054719    0.000688   -3.151659
