17

C      -0.003331    1.549969    0.038589
C      -0.055088    0.049599    0.131520
C      -1.335325   -0.715890   -0.206012
N      -1.345624   -1.983585    0.557971
C      -0.310073   -2.966353    0.216567
C      -0.099725   -2.038287    1.358520
C       0.699654   -0.790465    1.080758
O       1.129991   -0.656759   -0.283062
H       0.977833    1.916757    0.349567
H      -0.177365    1.881728   -0.991007
H      -0.769591    2.007373    0.672819
H      -2.206876   -0.128017    0.104489
H      -1.425668   -0.906327   -1.280824
H      -0.596875   -3.997621    0.404770
H       0.301521   -2.799586   -0.664203
H      -0.181968   -2.368051    2.390358
H       1.376873   -0.391197    1.831066
