18

N      -0.117043    1.181045   -0.335102
C      -0.039560   -0.036223   -0.042631
O       1.025909   -0.788318    0.403560
C       0.187785   -1.981537    0.519954
C      -1.028971   -1.188702   -0.009622
C      -2.244991   -1.030608    0.900285
C      -3.260074   -0.013788    0.336230
C      -4.418492    0.156161    1.203557
C      -5.362847    0.275632    1.937616
H       0.777494    1.657402   -0.208113
H       0.564742   -2.788190   -0.112618
H       0.123601   -2.309778    1.560886
H      -1.336136   -1.495251   -1.014384
H      -2.733799   -2.002878    1.029134
H      -1.923307   -0.702867    1.895080
H      -2.754791    0.947190    0.184842
H      -3.591560   -0.343922   -0.657346
H      -6.202324    0.394739    2.576436
