18

C      -0.099365    1.541501   -0.111592
C       0.034684    0.037293    0.002447
C       1.374631   -0.649473   -0.141713
O       2.536569    0.123036   -0.234282
C       0.687324   -0.635980    1.200848
C       1.257664    0.194392    2.337771
O       0.270676    0.890722    3.084176
C       2.070316   -0.664174    3.227855
N       2.667979   -1.352099    3.938454
H       0.842287    2.049466    0.108408
H      -0.396635    1.820232   -1.128197
H      -0.853827    1.924142    0.580574
H      -0.808549   -0.516019   -0.403234
H       1.420600   -1.600323   -0.670923
H       2.582471    0.495640   -1.121169
H       0.251694   -1.577691    1.523332
H       1.917982    0.963104    1.931565
H      -0.333875    0.241330    3.461463
