16

C       0.047169    1.433178   -0.041868
N      -0.027850   -0.008996    0.009731
N      -0.177713   -0.741309   -1.127023
C      -0.144502   -2.002326   -0.713484
C       0.034845   -2.123662    0.684144
C       0.112951   -3.353179    1.535917
C       0.106916   -0.804030    1.094781
O       0.285340   -0.227305    2.307976
H       1.083453    1.780249   -0.122981
H      -0.509611    1.764918   -0.918442
H      -0.396263    1.855556    0.862085
H      -0.251839   -2.802235   -1.433351
H       0.812762   -3.228177    2.372507
H      -0.856427   -3.640465    1.963522
H       0.472239   -4.206757    0.953661
H       0.281199   -0.919294    2.977026
