17

C      -0.344131    1.375028    0.150944
N       0.011256   -0.019310    0.099101
C      -0.785494   -1.249383    0.201463
C       0.543683   -2.036272   -0.010473
N       0.670001   -2.871743   -1.176570
C       0.055994   -4.082718   -1.251928
O      -0.712524   -4.506010   -0.414624
C       1.194761   -0.640918   -0.183175
O       2.288261   -0.237760   -0.490558
H       0.564062    1.957419   -0.021030
H      -1.079738    1.629642   -0.621694
H      -0.760027    1.644591    1.128790
H      -1.270769   -1.396492    1.170684
H      -1.513001   -1.375836   -0.605967
H       0.860479   -2.565145    0.893273
H       1.367068   -2.619895   -1.861259
H       0.325292   -4.635851   -2.172703
