12

O      -0.041666   -0.034026   -0.001326
C       0.014784    1.170720    0.007223
C       1.262276    1.954277   -0.000557
N       2.483956    1.405378   -0.018329
N       3.280906    2.451433   -0.019022
N       2.721163    3.653986   -0.003554
C       1.410369    3.368242    0.008676
C       0.406828    4.363136    0.027473
C      -0.469827    5.186448    0.043609
H      -0.897874    1.802101    0.022149
H       4.284818    2.346824   -0.030908
H      -1.238596    5.919636    0.058086
