18

N       0.221571    1.123219   -0.039491
C       0.052556   -0.211412   -0.151898
O       0.967741   -0.991025   -0.395851
C      -1.382492   -0.703925    0.015541
O      -2.117128    0.311095    0.669659
C      -1.953625   -1.283658   -1.320817
C      -1.549844   -2.706033   -0.859994
C      -1.416456   -2.168018    0.593781
O      -0.391080   -2.617175    1.418481
H       1.156907    1.493754   -0.073177
H      -0.545016    1.694609    0.274067
H      -3.043497    0.052801    0.687996
H      -3.039065   -1.140478   -1.352604
H      -1.524751   -0.906428   -2.250382
H      -2.261719   -3.515475   -1.031334
H      -0.571305   -2.988633   -1.250574
H      -2.354253   -2.293221    1.148755
H       0.430758   -2.405589    0.948403
