18

C       0.240027    0.599124   -1.273902
O      -0.155933    0.235089    0.032650
C      -1.385399   -0.467464    0.089558
C      -1.292792   -1.789055   -0.543445
C      -1.178395   -2.860643   -1.075420
C      -1.776039   -0.572749    1.577220
C      -1.825995    0.796095    2.250481
O      -3.044830   -1.211856    1.584070
H       1.178079    1.150307   -1.177889
H       0.400680   -0.281178   -1.909736
H      -0.508858    1.247231   -1.754886
H      -2.176290    0.111307   -0.418341
H      -1.092166   -3.812135   -1.539196
H      -1.018466   -1.200779    2.070020
H      -0.853844    1.289881    2.198101
H      -2.574169    1.431182    1.764692
H      -2.103509    0.688116    3.305137
H      -3.304075   -1.344537    2.500650
