20

C      -0.037705    1.537477   -0.017305
C      -0.017997    0.003993   -0.018288
C      -1.448147   -0.563006    0.028959
C       0.720639   -0.511905   -1.263445
O       0.947745   -1.903060   -1.175922
C       1.869888   -2.211903   -0.147886
C       1.598500   -1.526486    1.190779
O       2.148970   -1.897520    2.210504
N       0.749465   -0.460814    1.145134
H       0.978101    1.943103   -0.027592
H      -0.575388    1.917907   -0.891311
H      -0.547901    1.917192    0.874692
H      -2.054483   -0.162956   -0.790479
H      -1.424009   -1.651899   -0.055893
H      -1.936951   -0.298478    0.971938
H       0.112162   -0.344519   -2.156197
H       1.673152    0.030109   -1.383226
H       1.834968   -3.291040    0.013348
H       2.898026   -1.949323   -0.447813
H       0.546648   -0.050060    2.047219
