14

O      -0.015578   -0.032951    0.003097
C      -0.013067    1.168553    0.009208
C      -1.218593    2.124571    0.032060
O      -0.693827    3.461679    0.031028
C       0.655456    3.350557    0.010294
C       1.734744    4.175334   -0.001647
C       2.881445    3.289744   -0.023314
C       2.463577    1.989563   -0.023678
N       1.070828    2.031724   -0.002615
H      -1.847052    1.973803   -0.850550
H      -1.820455    1.964740    0.931452
H       1.738775    5.252033    0.003771
H       3.912399    3.611186   -0.037103
H       2.989615    1.051268   -0.036322
