18

O       0.187882   -0.398408    0.269010
C       0.046943    0.804107    0.262943
N       1.040691    1.713797    0.042947
C       2.405336    1.350585   -0.230472
C       3.096158    1.855293   -1.536581
C       4.399012    2.106620   -0.720690
C       3.541946    2.032024    0.545623
C       3.435833    2.995457    1.643909
O       3.984012    1.682470    1.836226
H      -0.927369    1.301008    0.441476
H       0.790629    2.690579    0.030526
H       2.465334    0.264276   -0.136818
H       3.146656    1.149386   -2.366236
H       2.649202    2.788835   -1.890101
H       5.094896    1.265270   -0.779194
H       4.944169    3.033523   -0.907196
H       4.149274    3.815910    1.713119
H       2.474921    3.167471    2.127673
