17

C      -0.097019   -1.103173   -0.008790
C      -0.014626    0.095311    0.030930
C       0.044663    1.528229    0.093496
C       0.605884    2.200498    1.302040
N       1.405744    2.129431    0.024092
C       1.178453    3.615144   -0.157113
C       0.435154    3.695439    1.181428
C      -0.639900    4.565138    1.704991
N       0.750122    4.687596    2.197622
H      -0.157911   -2.162305   -0.053446
H      -0.754074    2.043701   -0.438597
H       0.884592    1.642733    2.191259
H       2.134021    4.142221   -0.136785
H       0.630167    3.869417   -1.069660
H      -0.989411    5.413556    1.122820
H      -1.390612    4.116184    2.351001
H       0.841931    4.249049    3.111464
