21

C      -0.054727    1.553699    0.138587
C      -0.045487    0.024496    0.070775
C      -1.454375   -0.573869   -0.000432
C      -1.465193   -2.097605   -0.063210
O      -0.830892   -2.616546    1.111901
C      -1.433240   -3.843437    1.502826
C      -2.825334   -3.818986    0.911652
O      -3.524742   -2.599073    1.184149
C      -2.842943   -2.734461   -0.068925
H       0.961650    1.956556    0.189700
H      -0.541474    1.988661   -0.741887
H      -0.597461    1.906716    1.022495
H       0.531434   -0.301241   -0.805472
H       0.467326   -0.386783    0.946305
H      -2.040830   -0.270849    0.874395
H      -1.976404   -0.189883   -0.887618
H      -0.928508   -2.440890   -0.966416
H      -0.883650   -4.714262    1.108253
H      -1.421401   -3.890898    2.596864
H      -3.427450   -4.720248    0.837444
H      -3.461364   -2.728563   -0.962423
