16

O       0.008400    1.438033   -0.002880
C      -0.002601    0.021181   -0.032291
C      -1.428043   -0.476477    0.013190
N      -1.570825   -1.807825   -0.007963
C      -2.796653   -2.316752    0.029413
C      -3.951131   -1.528524    0.090075
O      -5.154897   -2.164108    0.124089
C      -3.799794   -0.145886    0.111946
C      -2.516184    0.389233    0.072810
H       0.922935    1.730516   -0.034130
H       0.475883   -0.370007   -0.943807
H       0.545175   -0.407243    0.821649
H      -2.895940   -3.399338    0.011547
H      -5.858941   -1.508364    0.164624
H      -4.670404    0.503939    0.158822
H      -2.352128    1.458454    0.087886
