19

C       0.747888   -0.553238   -1.624963
C       0.180454   -0.130154   -0.270397
N      -1.114779   -0.781831   -0.055424
C      -1.853641   -0.638340    1.253164
C      -2.700365   -1.850596    0.777819
C      -1.206496   -2.181874    0.514663
C      -0.926866   -1.681767    1.982342
C       0.396420   -1.360262    2.484568
N       1.426083   -1.152245    2.970536
H       1.677034   -0.015673   -1.836019
H       0.974740   -1.624818   -1.640569
H       0.030698   -0.347737   -2.424314
H       0.926570   -0.311030    0.511764
H      -0.018364    0.948651   -0.275193
H      -2.187226    0.326724    1.636167
H      -3.222580   -2.434131    1.537070
H      -3.287668   -1.667604   -0.119373
H      -0.774308   -3.052755    0.021805
H      -1.433239   -2.266332    2.756772
