18

O       0.262620    1.189809    0.713558
C       0.097553    0.057247   -0.131925
C      -1.265972   -0.467819   -0.149462
C      -2.404457   -0.863812   -0.170698
C      -3.769601   -1.350974   -0.186675
C      -4.515629   -1.550118   -1.571582
C      -4.762796   -3.008734   -1.178064
N      -3.419354   -3.612129   -1.006496
C      -4.025883   -2.846012    0.102762
H      -0.429347    1.818682    0.484179
H       0.414786    0.281019   -1.163436
H       0.789551   -0.701421    0.250811
H      -4.392809   -0.736787    0.471147
H      -5.420420   -0.943322   -1.637359
H      -3.901771   -1.410989   -2.462890
H      -5.623802   -3.622139   -1.411357
H      -3.554984   -4.599593   -0.790883
H      -4.180503   -3.296472    1.075394
