15

N      -0.106316    1.314448   -0.033903
C      -0.044447    0.047949    0.009005
N       1.107356   -0.748663    0.047261
C       1.048796   -2.139465    0.061328
O       2.029098   -2.843190    0.058375
C      -0.403757   -2.621442    0.063610
C      -1.185603   -1.917533   -1.069541
C      -1.292274   -0.812098    0.009402
O      -1.129527   -1.828661    1.042509
H       0.821220    1.745350   -0.044948
H       2.025499   -0.324903    0.076846
H      -0.464307   -3.697080    0.224903
H      -0.679157   -1.695910   -2.010309
H      -2.149015   -2.396181   -1.245762
H      -2.190200   -0.206675    0.118293
