17

N      -0.295051   -1.203617   -0.265971
C      -0.181200   -0.057664   -0.156757
C      -0.034359    1.377258   -0.005556
C      -0.246489    2.010388    1.414793
N       1.085404    2.691865    1.339005
C       2.238731    2.015887    1.981944
C       2.222953    0.517309    1.913408
C       2.603917    1.290091    0.678572
C       1.406859    2.002522    0.048736
H      -0.645171    1.871765   -0.764605
H      -1.073375    2.722542    1.459366
H      -0.351009    1.290464    2.229629
H       2.858614    2.563817    2.682075
H       3.067425    0.049258    2.409927
H       1.314614   -0.072207    1.967046
H       3.565846    1.172497    0.197257
H       1.659230    2.647299   -0.796846
