21

C       0.744806    1.463747    0.059031
C      -0.029637    0.140213    0.014556
C       0.305714   -0.736908   -1.234078
C       1.153399   -1.888779   -0.723830
O       1.055995   -3.134080   -1.359703
C       2.407406   -1.576862    0.069867
C       1.102588   -1.910808    0.777027
O       1.000807   -3.121250    1.456605
C       0.223611   -0.772993    1.257062
H       1.828741    1.313890    0.094399
H       0.526232    2.073312   -0.824303
H       0.466646    2.046180    0.943759
H      -1.092712    0.397666   -0.017078
H      -0.605025   -1.164901   -1.666329
H       0.794663   -0.150634   -2.021500
H       1.757914   -3.205703   -2.014375
H       3.146278   -2.371018    0.108071
H       2.815503   -0.572052    0.074446
H       0.937221   -3.805977    0.776243
H       0.661248   -0.212530    2.090330
H      -0.712033   -1.212011    1.618231
