20

C      -1.018564    1.337062   -0.546048
N      -1.309218   -0.059075   -0.294083
C      -0.478924   -0.861601    0.415157
O       0.575456   -0.494009    0.904434
C      -0.932590   -2.335597    0.575941
C      -0.855884   -2.729786    2.066957
C      -2.234285   -2.646327   -0.010326
C      -3.314385   -2.908049   -0.478595
C      -4.614951   -3.246950   -1.040992
H      -0.952856    1.542265   -1.620466
H      -1.785994    1.988650   -0.113045
H      -0.057736    1.560396   -0.080602
H      -2.160914   -0.468331   -0.645794
H      -0.163287   -2.909949    0.041707
H      -1.005680   -3.805521    2.184696
H       0.123701   -2.450238    2.457895
H      -1.627223   -2.210355    2.642620
H      -4.859881   -4.298861   -0.857539
H      -5.413012   -2.640643   -0.598630
H      -4.636965   -3.087346   -2.124633
