15

O      -0.848957    1.636368   -0.452152
C       0.021865    1.287800    0.302564
C       1.459684    1.734313    0.218788
C       1.778727    2.803021   -0.859494
N       2.139023    3.723769    0.225735
C       1.860978    2.789354    1.312590
C       2.283599    5.067177    0.290805
O       2.375358    5.693132    1.326515
H      -0.195094    0.603847    1.153841
H       2.109772    0.855567    0.217375
H       2.606757    2.555996   -1.530975
H       0.902764    3.103313   -1.441822
H       1.055452    3.118391    1.978279
H       2.735339    2.528719    1.915858
H       2.321456    5.529955   -0.716506
