15

C      -0.014307    1.482023    0.051465
C      -0.000357   -0.006350   -0.040284
N      -0.038184   -0.708883   -1.144363
C      -0.005541   -2.030333   -0.725877
C       0.052783   -2.092356    0.655809
N       0.083318   -3.387885    1.028541
N       0.046122   -4.198288   -0.081792
C      -0.007068   -3.386513   -1.134534
N       0.056722   -0.803121    1.115000
H       0.884072    1.868949    0.546817
H      -0.054932    1.889382   -0.959082
H      -0.884166    1.848465    0.609410
H       0.125781   -3.813957    1.936125
H      -0.043539   -3.812800   -2.125650
H       0.093466   -0.470974    2.062701
