21

C      -0.450801    1.526454    0.393263
C      -0.118204    0.050580    0.239815
O      -1.207335   -0.749290    0.702455
C       0.269883   -0.491718   -1.138701
C       1.581650    0.065731   -1.609012
C       1.589755   -1.044355   -0.597887
C       1.268924   -0.526643    0.820768
C       2.260849    0.415222    1.482011
O       1.033030   -1.574251    1.734704
H       0.337524    2.166398   -0.010110
H      -1.383883    1.757857   -0.130253
H      -0.576841    1.790730    1.450940
H      -1.446564   -0.433628    1.581807
H      -0.446377   -0.948375   -1.811030
H       1.863173   -0.224782   -2.616280
H       1.895794    1.072423   -1.346799
H       2.059058   -2.002535   -0.787090
H       2.548442    1.240678    0.827304
H       1.837954    0.830619    2.402116
H       3.165070   -0.139804    1.750919
H       0.192240   -1.972155    1.466220
