23

C       0.020543    1.536485   -0.026032
N      -0.037850    0.083744    0.106186
C       0.709179   -0.344818    1.282692
C       2.156537   -0.156818    1.099771
N       3.294833   -0.005381    0.973339
C      -1.385871   -0.541221   -0.030011
C      -2.055865    0.006758   -1.303829
C      -1.212237   -2.061571   -0.219467
C      -2.301452   -0.267933    1.184532
H       1.064975    1.852639    0.047774
H      -0.342137    1.851982   -1.004101
H      -0.547494    2.080227    0.750518
H       0.422910    0.185935    2.209883
H       0.544498   -1.407740    1.468579
H      -1.383866   -0.081544   -2.162661
H      -2.960489   -0.569508   -1.516096
H      -2.355020    1.052635   -1.201236
H      -0.870146   -2.570539    0.686278
H      -2.172015   -2.513279   -0.486289
H      -0.496118   -2.265200   -1.020201
H      -2.443549    0.804782    1.348411
H      -3.289965   -0.709692    1.024618
H      -1.896452   -0.702049    2.104425
