19

C       0.268357    1.526076   -0.259060
O      -0.310204    0.273760   -0.596077
C       0.585519   -0.604886   -1.199595
C       1.665638   -1.321225   -0.361665
O       2.327105   -1.005251    0.586608
C       1.393296   -2.644939   -1.088529
C       0.046328   -2.032339   -1.573202
C      -1.156356   -2.450609   -0.735647
O      -0.154133   -2.265372   -2.950969
H       1.095278    1.406030    0.449562
H       0.639466    2.045190   -1.156124
H      -0.520513    2.127138    0.198341
H       1.057452   -0.171100   -2.099601
H       2.077493   -2.803510   -1.927746
H       1.355045   -3.546007   -0.473770
H      -0.967459   -2.314877    0.332968
H      -2.030330   -1.840383   -0.986407
H      -1.389539   -3.502591   -0.923485
H      -1.002289   -1.881489   -3.199359
