22

C      -0.133408    1.172685   -0.309746
N       0.302094   -0.190837   -0.047456
C       1.741810   -0.413336    0.110771
C       0.815526   -0.502117    1.270286
C       0.849605    0.367710    2.542680
C       0.720670   -0.941113    3.386652
C       0.414594   -1.711564    2.092396
C      -0.793885   -2.559360    1.816078
C       0.590941   -3.163693    1.772589
H       0.475485    1.940242    0.195548
H      -0.092386    1.361461   -1.387243
H      -1.172148    1.292269    0.015347
H       2.137895   -1.309857   -0.360406
H       2.400813    0.454532    0.067507
H       1.745923    0.969213    2.709211
H      -0.027800    1.014646    2.635229
H       1.665526   -1.236839    3.851709
H      -0.061698   -0.943947    4.149608
H      -1.441504   -2.817124    2.648301
H      -1.301754   -2.392061    0.872050
H       1.000758   -3.427047    0.802148
H       0.886960   -3.829585    2.577329
