19

C      -0.032007    1.473642    0.037056
C       0.074992   -0.018577   -0.007448
O      -0.804814   -0.796616    0.832009
C       0.619332   -0.923823    1.000587
C       1.301864   -1.981834    0.085675
C       2.208113   -3.014665    0.690367
C       0.221526   -2.258659   -0.990945
C       0.559977   -0.783497   -1.275910
O       1.949828   -1.071844   -0.892950
H       0.883506    1.927299   -0.356255
H      -0.872965    1.826225   -0.570420
H      -0.184013    1.819492    1.062523
H       1.028018   -0.633926    1.963616
H       1.636966   -3.680674    1.345226
H       2.687114   -3.614855   -0.087420
H       2.991733   -2.537813    1.288952
H       0.615999   -2.908391   -1.772282
H      -0.785775   -2.532363   -0.684219
H       0.460073   -0.304497   -2.249504
