25

C       1.427733    1.152646   -0.563851
C       0.879318   -0.222850   -0.250304
C       1.801780   -1.393874   -0.009005
C       0.958349   -0.854215    1.124342
C       1.583318   -0.178294    2.323496
C       0.631839    0.767191    3.089976
C       1.229278    0.900670    4.516169
C       2.285992   -0.235216    4.643651
C       2.048512   -1.147318    3.427568
H       2.360308    1.353693   -0.028744
H       1.640665    1.249698   -1.634465
H       0.714334    1.940379   -0.295964
H      -0.029211   -0.458443   -0.799696
H       1.556577   -2.359840   -0.437377
H       2.867546   -1.184798    0.024817
H       0.096368   -1.464573    1.390772
H       2.459535    0.398790    1.998382
H       0.507073    1.731083    2.588522
H      -0.362464    0.305961    3.136820
H       1.692081    1.880645    4.665227
H       0.448864    0.809266    5.277157
H       3.296722    0.185336    4.596233
H       2.213976   -0.771922    5.593743
H       1.243582   -1.864504    3.638828
H       2.931253   -1.728021    3.143851
