17

O      -0.016272   -0.011636   -0.457745
C       0.014664    1.108745   -0.005224
C       1.249038    1.926312    0.050066
C       1.192456    3.444087   -0.108980
O      -0.066027    4.022116   -0.283271
C      -0.531710    4.799039    0.818936
C      -0.403336    4.079353    2.136949
C       0.533170    3.148175    2.309383
C       1.521330    2.888524    1.230652
H      -0.894261    1.591405    0.402372
H       2.118368    1.427699   -0.364853
H       1.973926    3.898888   -0.715039
H      -0.004316    5.767265    0.857394
H      -1.581000    5.014072    0.595329
H      -1.102563    4.341908    2.924791
H       0.624376    2.595458    3.239349
H       2.562465    2.905665    1.540368
