19

C      -0.105459    1.368740   -0.001282
O       0.155464   -0.023539    0.050619
C       0.643389   -0.575547   -1.136490
C       1.254759   -1.951443   -0.781489
O       1.745741   -2.615412   -1.925566
C       0.720316   -2.917038   -2.851788
C       0.060308   -1.630692   -3.386164
C      -0.422216   -0.779230   -2.221847
O      -1.545124   -0.342865   -2.132682
H       0.796637    1.929821   -0.291482
H      -0.917043    1.601482   -0.697389
H      -0.396320    1.670556    1.007461
H       1.446758    0.045279   -1.573805
H       2.095726   -1.811218   -0.099283
H       0.487396   -2.550770   -0.266400
H       1.187512   -3.480125   -3.663628
H      -0.042559   -3.560350   -2.383924
H       0.812046   -1.066826   -3.952293
H      -0.783782   -1.850082   -4.045027
