20

C      -0.285257    1.520213    0.136508
C       0.219948    0.090866   -0.092739
C       0.875032   -0.501161    1.138408
C       0.047845   -1.190740    2.193389
C       0.976470   -1.989980    1.322912
C       0.693997   -3.146562    0.345176
N       1.897772   -3.781181    0.900664
C       2.207785   -2.758386    1.773608
O       3.106540   -2.581491    2.553174
H       0.536996    2.187671    0.415580
H      -0.751570    1.924384   -0.767226
H      -1.025214    1.551336    0.942769
H      -0.616226   -0.549003   -0.402763
H       0.935159    0.084590   -0.925504
H       1.738083    0.049976    1.506865
H       0.323534   -1.076693    3.236488
H      -1.018002   -1.294307    2.011127
H      -0.229480   -3.706568    0.525671
H       0.771340   -2.892142   -0.717507
H       2.397547   -4.617466    0.641620
