17

C      -0.024740    1.569372   -0.139541
C       1.510204    1.536527    0.091814
C       1.370447    0.087528    0.653502
N       1.383925    0.083372    2.106298
C       0.292244   -0.015746    2.737363
O      -0.968787   -0.196282    2.271902
C      -1.082477   -0.629462    0.906592
C      -0.048887    0.021428    0.012184
H      -0.559593    2.069171    0.672542
H      -0.379869    1.973518   -1.089821
H       2.072452    1.554939   -0.845646
H       1.937759    2.265166    0.782401
H       2.112426   -0.632939    0.298461
H       0.273495    0.056156    3.823965
H      -0.961456   -1.721204    0.889125
H      -2.107627   -0.392457    0.607747
H      -0.040198   -0.480544   -0.959925
