18

C      -0.028761    1.566311    0.014039
C       1.471166    1.827125   -0.016556
C       2.087025    0.570219    0.657473
O       1.016850   -0.313945    0.953501
C      -0.011798    0.025250    0.007162
C       0.412045   -0.447762   -1.389737
C       1.768891    0.147945   -1.726127
C       2.796160    0.306210   -0.677518
N       2.162172    1.527596   -1.333762
H      -0.468900    1.949198    0.939340
H      -0.558166    1.995685   -0.840702
H       1.794128    2.800171    0.351499
H       2.716702    0.684722    1.539081
H      -0.936248   -0.447749    0.343257
H       0.483759   -1.540892   -1.416229
H      -0.337220   -0.146488   -2.131543
H       2.143670   -0.081618   -2.720504
H       3.844615    0.060864   -0.812183
