13

O       0.080979    1.384365   -0.222360
C       0.010693    0.017666   -0.061808
C      -0.474763   -0.861382   -1.222350
C      -1.266573   -0.785271    0.039484
O      -1.072190   -1.893316    0.918742
C       0.185302   -1.888043    1.444270
O       0.604876   -2.723266    2.181993
C       0.901122   -0.611759    0.936358
O       1.914958   -0.143862    1.384311
H       0.903625    1.664588    0.204554
H      -0.830661   -0.274536   -2.062328
H       0.031507   -1.788402   -1.469970
H      -2.254785   -0.350407    0.107480
