18

N      -0.033337    0.640078    1.065694
C       0.010788   -0.081308    0.025004
C      -1.333078   -0.561661   -0.533803
O      -1.348080   -1.743423   -1.315767
C      -0.641467   -2.802193   -0.744591
C       0.060362   -3.692785   -1.717034
C       0.860244   -2.708216   -0.884457
C       1.334283   -1.426123   -1.518859
O       1.186260   -0.308303   -0.622850
H       0.905519    0.967465    1.303048
H      -2.001730   -0.644105    0.331106
H      -1.728997    0.223528   -1.186803
H      -1.077441   -3.222681    0.160779
H       0.144840   -4.746695   -1.479691
H      -0.078785   -3.470632   -2.769398
H       1.478600   -3.100756   -0.083772
H       2.404016   -1.452888   -1.739388
H       0.795312   -1.231374   -2.450043
