18

C       0.171547    1.638650    0.141640
C       0.054150    0.137582   -0.010127
N      -1.081246   -0.463525    0.645615
C      -2.330506   -0.545646    0.099638
O      -2.627726   -0.232798   -1.031492
C       0.437429   -0.627940   -1.270625
C       1.716543   -0.048083   -1.857887
O       2.395518   -0.144304   -0.570282
C       1.252572   -0.784447   -0.009735
H       1.143851    1.990954   -0.207691
H      -0.618957    2.145518   -0.419737
H       0.077295    1.920154    1.196219
H      -1.002131   -0.659380    1.633124
H      -3.059623   -0.961384    0.825168
H      -0.261306   -1.282578   -1.768833
H       2.194943   -0.711624   -2.585726
H       1.693821    0.975774   -2.245927
H       1.408195   -1.602221    0.686329
