22

C      -0.142708    1.499020   -0.021118
N       0.061789    0.060931    0.017756
C       1.353439   -0.562664   -0.297215
C       2.584677    0.268845   -0.135962
C       2.753820    0.643848    1.134590
C       1.731827    0.017053    2.071191
C       2.408218   -1.104703    2.889586
C       1.088346    1.021372    3.045075
C       0.750138   -0.648486    1.081833
H       0.726747    2.105977    0.264790
H      -0.428292    1.775048   -1.042064
H      -0.977773    1.752784    0.639280
H       1.318641   -1.360336   -1.034516
H       3.214789    0.560231   -0.968861
H       3.529256    1.310396    1.500439
H       3.198254   -0.698213    3.529824
H       1.676337   -1.605066    3.534770
H       2.856640   -1.854749    2.231836
H       0.615555    1.859048    2.530101
H       0.327043    0.528328    3.658704
H       1.844602    1.430192    3.724793
H       0.234249   -1.539448    1.434894
