19

O      -0.055159    1.428113   -0.390289
C       0.080341    0.110046    0.126162
C      -1.267461   -0.579898    0.183157
C      -1.858927   -1.227813   -1.037701
O      -0.952811   -1.492504   -2.081047
C      -0.336325   -2.761454   -1.844318
C      -0.407078   -3.040834   -0.330104
O       0.883598   -2.833871    0.233445
C      -1.506828   -2.090353    0.144982
H      -0.308844    1.336368   -1.314990
H       0.799502   -0.478123   -0.448793
H       0.486258    0.226645    1.136562
H      -1.986412   -0.049804    0.804259
H      -2.877013   -1.033876   -1.362485
H      -0.871111   -3.541591   -2.403998
H       0.699625   -2.719594   -2.190278
H      -0.722916   -4.078390   -0.150676
H       0.796658   -2.855879    1.191848
H      -2.275904   -2.491195    0.795247
