23

C      -0.037202    1.638576   -0.069266
C      -0.140516    0.109937   -0.127680
C       0.731188   -0.514202   -1.219200
C       2.244396   -0.305421   -1.027715
O       2.865880   -1.318917   -1.800328
C       2.106074   -2.501405   -1.600474
C       0.657949   -2.046676   -1.364854
C      -0.277815   -2.924690   -0.575218
C      -0.491850   -2.726173   -2.056559
H       0.979280    1.965213    0.173474
H      -0.309095    2.090015   -1.029948
H      -0.706145    2.049700    0.692903
H       0.135216   -0.317244    0.844945
H      -1.188794   -0.167889   -0.297027
H       0.454294   -0.067055   -2.183578
H       2.611190    0.658953   -1.387097
H       2.511524   -0.403744    0.040254
H       2.228357   -3.132277   -2.486710
H       2.484804   -3.057663   -0.726454
H       0.101843   -3.884959   -0.238095
H      -0.982499   -2.466414    0.109888
H      -1.332508   -2.112913   -2.368340
H      -0.275396   -3.553204   -2.725904
