20

C       0.029639    1.545378    0.141595
C      -0.026813    0.014851    0.151752
C      -1.440108   -0.542231   -0.022453
O      -2.332355   -0.055610    0.946666
C      -2.026513   -0.426475   -1.450965
N      -1.628282   -1.829937   -1.716121
C      -1.500312   -2.108316   -0.275105
C      -0.307507   -2.936999    0.128039
O      -0.069586   -3.249616    1.269285
H       1.053937    1.895235    0.298011
H      -0.318608    1.951908   -0.813450
H      -0.600704    1.967588    0.928560
H       0.604885   -0.393604   -0.646393
H       0.385805   -0.370635    1.094257
H      -1.926413   -0.167805    1.814264
H      -3.108661   -0.256679   -1.398057
H      -1.575759    0.307113   -2.127321
H      -2.315687   -2.387970   -2.209583
H      -2.398894   -2.496246    0.223258
H       0.368142   -3.209175   -0.714783
