22

C       0.002920    1.649377    0.031561
C       0.028798    0.109833    0.005788
C       0.714639   -0.428194   -1.164904
C       1.298065   -0.851066   -2.132364
C       1.942659   -1.327201   -3.334125
C       1.664064   -0.502348   -4.579100
C       3.258121   -2.041438   -3.191219
N       2.067116   -2.780379   -3.577159
C       1.517842   -3.710427   -2.600266
H       1.018223    2.054909    0.041389
H      -0.508998    2.043978   -0.850278
H      -0.520645    2.006650    0.923286
H       0.515110   -0.262654    0.916695
H      -0.999766   -0.272770    0.036063
H       2.011249    0.527119   -4.446542
H       2.173046   -0.943492   -5.439388
H       0.590488   -0.474906   -4.789427
H       4.019321   -1.922328   -3.959051
H       3.639637   -2.172415   -2.179844
H       1.605815   -3.366887   -1.559232
H       0.458018   -3.876696   -2.816656
H       2.041891   -4.666196   -2.700828
