19

C       0.065151    1.362611   -0.026857
O       0.066817   -0.054196    0.066099
C       0.677108   -0.541122    1.208303
C       0.331455   -0.316270    2.694086
C       1.505331   -1.323796    2.682245
C       0.974265   -2.060024    1.403430
C       2.341141   -1.941471    0.694498
O       2.382597   -1.901086   -0.706153
C       2.232427   -0.618837    1.488813
H       1.086883    1.765755   -0.040569
H      -0.435449    1.620188   -0.962170
H      -0.482326    1.816463    0.809405
H       0.540846    0.670622    3.118504
H      -0.637127   -0.693455    3.036839
H       1.996459   -1.799798    3.526888
H       0.233510   -2.860666    1.381700
H       3.120438   -2.639119    1.015705
H       1.656596   -1.334497   -0.997286
H       2.929789    0.216759    1.564986
