17

N      -0.053629   -1.161160   -0.067599
C      -0.025060   -0.006388   -0.035644
C      -0.005180    1.454781    0.034570
C      -0.556944    2.023204    1.385259
C       0.695334    2.780111    1.800460
C       1.330737    3.396346    0.515418
C       2.742018    3.188606    1.092423
C       1.934406    1.916306    1.405825
N       1.392887    1.966391   -0.027563
H      -0.554077    1.845812   -0.827963
H      -1.422940    2.673114    1.233934
H      -0.836173    1.237291    2.090965
H       0.682831    3.338776    2.738288
H       0.950404    4.213650   -0.101032
H       3.546447    3.078601    0.364957
H       3.022060    3.814033    1.940905
H       2.270246    0.975718    1.844644
