22

C      -0.344455    1.517900    0.781147
C      -0.136147    0.291209   -0.114389
C      -1.336941   -0.634485   -0.110902
C      -1.284835   -2.080838   -0.501924
C      -0.019765   -2.784985   -0.944988
C      -1.561225   -1.709060    0.958711
C      -0.560498   -1.967095    2.037690
N      -1.114963   -2.320758    3.240095
O       0.650978   -1.865870    1.911692
H       0.515620    2.192670    0.729494
H      -1.233042    2.086809    0.483366
H      -0.472917    1.221209    1.827098
H       0.040507    0.618634   -1.147660
H       0.754284   -0.246242    0.213305
H      -2.260594   -0.125044   -0.381714
H      -2.175372   -2.441377   -1.012374
H       0.837046   -2.507300   -0.332162
H      -0.143413   -3.871060   -0.872574
H       0.198682   -2.546642   -1.991969
H      -2.592487   -1.831126    1.277286
H      -2.090110   -2.540587    3.337699
H      -0.485184   -2.592235    3.977350
