12

C       0.322470    1.574130    0.134365
N       1.183994    0.465188   -0.275951
C      -0.216923    0.186312    0.107779
C      -0.426208   -0.593335    1.338766
N       0.120567   -0.369336    2.500544
O      -0.373163   -1.339056    3.303086
N      -1.241086   -2.138159    2.565810
N      -1.271696   -1.690265    1.392209
H       0.578530    2.015207    1.092606
H      -0.050838    2.268462   -0.613467
H       1.267386    0.431767   -1.288964
H      -0.924087   -0.072361   -0.673878
