17

C      -0.140964    1.614675   -0.003578
C      -0.042674    0.097259    0.002148
C       1.154898   -0.582278   -0.702018
C       2.117699   -0.341922    0.516068
N       2.530736   -1.775084    0.684561
C       1.094333   -1.830840    0.258363
C       0.354584   -3.050807    0.065529
N      -0.244862   -4.024521   -0.107982
C       0.714704   -0.601407    1.155256
H       0.819893    2.087174    0.225524
H      -0.468198    1.980836   -0.982354
H      -0.868229    1.961527    0.738033
H      -1.010066   -0.361289   -0.230994
H       1.426104   -0.611889   -1.759062
H       2.797520    0.488351    0.695028
H       3.133792   -2.064141   -0.091563
H       0.493461   -0.658079    2.220548
