13

O      -0.081806    1.293213    0.038387
N       0.053617   -0.089219   -0.070900
C      -1.060532   -0.674471    0.028359
C      -1.441577   -2.113106   -0.095672
O      -2.258495   -2.412274    1.058256
C      -2.876238   -1.750425   -0.027444
C      -2.544204   -0.234068    0.101859
C      -3.029811    0.451538    1.288080
N      -3.433796    0.991293    2.226219
H       0.828820    1.602819   -0.029866
H      -0.927540   -2.931998   -0.579343
H      -3.745770   -2.197286   -0.491863
H      -2.806420    0.334903   -0.796571
