18

C       0.299512    0.733530   -0.399253
O      -0.405229    0.192560    0.716280
C      -1.538717   -0.583088    0.381134
C      -1.142117   -2.039704    0.102036
O      -0.246485   -2.486612    1.078742
C      -2.328427   -3.023876   -0.133361
N      -1.855087   -3.169856   -1.512225
C      -0.741183   -2.383855   -1.382073
O       0.158195   -2.103703   -2.132210
H       1.122787    1.321875    0.011942
H       0.692533   -0.048860   -1.057622
H      -0.354381    1.396991   -0.982885
H      -2.186264   -0.566890    1.265517
H      -2.091491   -0.151298   -0.465435
H       0.271476   -1.707800    1.330234
H      -2.242519   -3.926955    0.476688
H      -3.333662   -2.598017   -0.043046
H      -2.169068   -3.759474   -2.268278
