23

C       0.045644    1.651282    0.127283
C       0.017425    0.128806    0.023543
C      -1.404261   -0.448794   -0.006535
C      -2.267387    0.021133   -1.182731
C      -3.611819   -0.692614   -1.243241
O      -4.335426   -0.167392   -2.345717
C       0.968435   -0.483181   -1.041554
O       1.704468   -1.213674   -0.041415
C       0.944422   -0.612261    1.024158
H       1.074096    2.017508    0.208310
H      -0.405283    2.124810   -0.750427
H      -0.503356    1.996760    1.011144
H      -1.328081   -1.544442   -0.031048
H      -1.906126   -0.199693    0.939349
H      -2.458408    1.097867   -1.120266
H      -1.745194   -0.149664   -2.132524
H      -3.452252   -1.778209   -1.350926
H      -4.157481   -0.537862   -0.297453
H      -5.182138   -0.620457   -2.393823
H       0.505613   -1.151005   -1.779253
H       1.602264    0.242094   -1.569500
H       1.564475    0.041111    1.653245
H       0.461811   -1.364542    1.661582
