20

C      -0.129539    1.579665   -0.038291
C       0.061557    0.062392    0.019578
C       0.860751   -0.538907   -1.121559
C       2.315954   -0.816664   -0.966852
C       2.772038   -0.919182    0.502201
C       2.205926    0.145774    1.458135
C       0.800287   -0.499544    1.248201
C       1.511503   -1.792803    0.684049
N       1.279769   -1.921591   -0.816766
H       0.823376    2.113476   -0.086177
H      -0.707770    1.860399   -0.924847
H      -0.675711    1.941038    0.839153
H      -0.932944   -0.404965   -0.016119
H       0.498469   -0.404367   -2.137932
H       2.987233   -0.794996   -1.820396
H       3.783447   -1.304939    0.629384
H       2.567004   -0.014735    2.478344
H       2.337017    1.200626    1.204082
H       0.162776   -0.593135    2.128421
H       1.472048   -2.729659    1.235255
