23

C       0.023275    1.569466    0.235757
C      -0.016817    0.039904    0.126059
C      -1.418775   -0.524270   -0.078914
C      -2.374223   -0.468233    1.156086
C      -2.502180   -2.015556    1.143555
C      -1.585652   -2.091709   -0.107553
C      -2.300397   -2.355588   -1.432983
O      -2.981234   -1.144243   -1.746562
C      -2.087645   -0.095145   -1.394787
H       1.041305    1.923855    0.423928
H      -0.328208    2.047707   -0.684601
H      -0.609281    1.925140    1.056157
H       0.624761   -0.284737   -0.704601
H       0.415399   -0.399303    1.034274
H      -1.911279   -0.057709    2.057785
H      -3.310520    0.066784    0.977085
H      -2.090987   -2.508508    2.027565
H      -3.515958   -2.391846    0.981874
H      -0.675471   -2.684900    0.006064
H      -1.571650   -2.602966   -2.223517
H      -3.046387   -3.154768   -1.387241
H      -2.672535    0.825818   -1.318389
H      -1.324296    0.040040   -2.181671
