19

C      -0.054690    1.592044    0.029878
C       0.060310    0.087936    0.093051
O      -1.155518   -0.585567   -0.175542
C       1.300497   -0.698724   -0.328021
C       2.642549    0.001056   -0.320144
O       2.741072    0.671833    0.941422
C       1.934900   -0.001728    1.900112
C       0.831693   -0.694102    1.124354
O       0.241201   -1.759860    1.779947
H       0.880359    2.072226    0.323316
H      -0.300771    1.916365   -0.988988
H      -0.854988    1.935669    0.692730
H      -1.301322   -0.590557   -1.127549
H       1.154912   -1.573362   -0.952642
H       3.446970   -0.742042   -0.435899
H       2.772179    0.766696   -1.093398
H       2.499663   -0.770711    2.449936
H       1.581179    0.746407    2.616887
H      -0.616561   -1.890769    1.352739
