20

C      -0.249315    1.444419   -0.358501
C       0.059040   -0.015388   -0.031962
C       1.171606   -0.601822   -0.989904
C       2.163352   -0.429388    0.169393
O       3.358234   -0.424327    0.238404
C       1.038126   -0.168556    1.175866
N      -1.206571   -0.709926    0.162921
C      -1.887838   -1.279465   -0.990699
C      -1.295914   -2.157919    0.058450
H       0.669997    2.032433   -0.445728
H      -0.790230    1.521482   -1.307497
H      -0.871597    1.882117    0.426843
H       1.043029   -1.660113   -1.239957
H       1.395495   -0.054899   -1.909161
H       1.160033    0.681036    1.852019
H       0.820568   -1.064100    1.768430
H      -2.960821   -1.117085   -1.041852
H      -1.376576   -1.255580   -1.952243
H      -0.414038   -2.733541   -0.215830
H      -1.929311   -2.638019    0.799156
