19

O      -0.063809    1.460701    0.010727
C       0.028148    0.045097    0.002784
C      -1.396371   -0.514765    0.011919
C      -1.414786   -2.024712    0.004255
C      -1.414773   -2.735837   -1.199903
C      -1.397872   -4.127998   -1.210262
C      -1.380635   -4.835702   -0.010647
C      -1.381834   -4.140562    1.196395
C      -1.398780   -2.748351    1.200802
H       0.828008    1.820195    0.005285
H       0.559620   -0.320767   -0.890177
H       0.574479   -0.329781    0.882940
H      -1.908862   -0.127726    0.899067
H      -1.923740   -0.118559   -0.862381
H      -1.435133   -2.190305   -2.139254
H      -1.403277   -4.660200   -2.156094
H      -1.371133   -5.920580   -0.016370
H      -1.374654   -4.682597    2.136614
H      -1.406526   -2.212663    2.145985
