21

C      -0.030571    1.501338    0.045686
C       0.001529    0.006918   -0.026474
C      -0.016635   -0.748693   -1.128817
C       0.010935   -2.232302   -0.853696
C       1.309222   -2.563506   -0.068668
C       1.332771   -1.695332    1.219328
C       0.048631   -0.839092    1.231073
O      -1.081462   -1.733404    1.264264
C      -1.173109   -2.537826    0.089512
H       0.843896    1.897050    0.578726
H      -0.049018    1.950545   -0.951577
H      -0.914109    1.851363    0.594563
H      -0.069692   -0.351064   -2.137577
H      -0.066903   -2.834791   -1.761774
H       1.322595   -3.629878    0.181364
H       2.181934   -2.367064   -0.696911
H       1.342287   -2.320157    2.117319
H       2.215843   -1.049778    1.257636
H      -0.030620   -0.241860    2.142293
H      -2.129631   -2.334374   -0.410446
H      -1.159988   -3.596282    0.387580
