18

N      -0.035560   -1.133752   -0.061745
C      -0.019194    0.022049   -0.021123
C       0.003975    1.474141    0.032764
C      -0.109263    2.070743    1.477000
C       1.434577    1.931898    1.590678
C       1.440564    2.099139    0.045480
C       1.301467    3.589578   -0.289615
O       0.588983    4.288776    0.721952
C      -0.461716    3.557272    1.338974
H      -0.692150    1.873111   -0.712977
H      -0.759287    1.562101    2.190221
H       1.966343    2.679602    2.181222
H       1.732480    0.926762    1.893263
H       2.212850    1.616557   -0.555037
H       2.286761    4.064769   -0.340416
H       0.816739    3.711727   -1.272423
H      -1.405354    3.671013    0.780044
H      -0.599626    4.011885    2.325634
