25

C       0.083632    1.494498   -0.068826
C      -0.007131   -0.027729    0.100542
C       0.515041   -0.454316    1.479249
C      -1.446419   -0.517718   -0.157858
C      -1.584039   -2.026829   -0.243479
C      -1.891557   -2.971939    0.892257
C      -2.906216   -2.375915    1.877365
C      -3.916131   -2.181869    0.700066
C      -2.884979   -2.786090   -0.263928
H       1.108709    1.850810    0.078460
H      -0.240500    1.806418   -1.067492
H      -0.552899    2.008235    0.661994
H       0.639484   -0.488302   -0.661333
H      -0.088819   -0.007663    2.278801
H       0.483674   -1.539777    1.604975
H       1.549815   -0.126637    1.626137
H      -2.103957   -0.109258    0.619195
H      -1.796546   -0.084641   -1.105103
H      -0.866115   -2.468142   -0.935456
H      -1.252192   -3.820758    1.107585
H      -3.264076   -3.110227    2.602416
H      -2.592230   -1.481267    2.424619
H      -4.801557   -2.810849    0.815094
H      -4.247225   -1.160767    0.485072
H      -3.123025   -3.470042   -1.070742
