16

N      -0.471281    1.003209    0.605322
C      -0.670238   -0.051732   -0.057530
O      -0.350291   -1.250332    0.472462
C      -0.752754   -2.400762   -0.279432
C      -2.206360   -2.716578   -0.107928
C      -2.974422   -2.540971    1.028181
N      -4.214545   -2.986061    0.719976
N      -4.320807   -3.444974   -0.540405
C      -3.101907   -3.281073   -1.045820
H      -0.736135    1.814962    0.051177
H      -1.081485   -0.117825   -1.074297
H      -0.513163   -2.265926   -1.343017
H      -0.114250   -3.205724    0.096972
H      -2.732356   -2.127801    1.994052
H      -5.030783   -2.986694    1.308174
H      -2.902288   -3.573576   -2.066964
