15

C      -0.123863    1.439481   -0.110832
C       1.279008    0.919732    0.094809
C       0.118199   -0.034589    0.056930
N      -0.302362   -0.692619    1.262902
N      -0.261681   -0.110970    2.453954
C      -0.731072   -1.052814    3.278729
C      -1.041852   -2.188840    2.525485
N      -0.760568   -1.938370    1.242333
H      -0.585543    1.949908    0.725785
H      -0.419607    1.791488   -1.092518
H       1.967192    0.907208   -0.742644
H       1.728913    1.092419    1.065055
H      -0.006144   -0.702773   -0.783549
H      -0.817963   -0.868681    4.337445
H      -1.440072   -3.143389    2.829242
