18

C      -0.312859    1.581004    0.138402
C       0.005884    0.088117    0.081648
N       1.249664   -0.226999   -0.704961
C       1.764078   -1.138050    0.354636
C       0.731067   -0.541978    1.304516
C       0.866892   -0.028391    2.664825
O       0.109702   -1.215990    2.364097
C      -1.154655   -0.697464   -0.329418
C      -2.095945   -1.346823   -0.702106
H       0.578417    2.136220    0.440495
H      -0.627583    1.937469   -0.846659
H      -1.124468    1.778718    0.845469
H       1.053143   -0.687597   -1.587103
H       1.578211   -2.205326    0.179426
H       2.821426   -0.990020    0.595375
H       1.793506   -0.192277    3.213263
H       0.276479    0.827178    2.987638
H      -2.930097   -1.923723   -1.017413
