15

C       0.708356    1.041095    0.403057
O       0.041838   -0.066072   -0.223098
C       0.699257   -0.621362   -1.255500
O       1.778717   -0.260681   -1.647664
C      -0.123256   -1.743358   -1.867222
C       0.689246   -2.575046   -2.852123
O       0.436387   -2.604199   -4.034173
C       1.762593   -3.362554   -2.274981
C       2.631703   -4.035636   -1.785478
H       0.873071    1.846389   -0.316797
H       0.045104    1.370632    1.202335
H       1.673257    0.727417    0.808374
H      -0.518362   -2.376033   -1.065650
H      -0.971641   -1.310011   -2.405287
H       3.410018   -4.627879   -1.368764
