17

C      -0.141865    1.548410   -0.019001
C       0.032800    0.040685    0.027679
O       0.819703   -0.416454   -1.103170
C       1.888489   -1.217754   -0.562868
C       1.250587   -1.898067    0.650675
C       0.838420   -0.524880    1.210737
O       2.101308    0.188083    1.251609
C       2.818869   -0.224223    0.148977
O       3.903547    0.189270   -0.122760
H       0.816330    2.059277    0.093403
H      -0.584213    1.838469   -0.975546
H      -0.812215    1.877629    0.781953
H      -0.949074   -0.451860   -0.009367
H       2.349075   -1.803074   -1.353638
H       0.410736   -2.544335    0.390634
H       1.959270   -2.421710    1.295305
H       0.372347   -0.469625    2.192143
