16

O      -0.365379    1.436363   -0.355783
C       0.055360    0.115709   -0.022281
C      -1.208210   -0.773507    0.178904
C      -1.440295   -1.612009   -1.127383
C      -0.102616   -1.504858   -1.799171
C       0.685559   -0.597320   -1.179832
O       1.863700   -0.453863   -1.788577
N       1.872537   -1.327802   -2.892982
C       0.703691   -1.934700   -2.884015
H       0.416110    1.952260   -0.581753
H       0.686477    0.133958    0.876289
H      -1.032749   -1.451554    1.018207
H      -2.059906   -0.139745    0.433489
H      -1.736283   -2.638585   -0.891597
H      -2.237977   -1.184771   -1.745285
H       0.503644   -2.658928   -3.661606
