15

C       0.012373    1.410375    0.169506
N      -0.159652   -0.003678   -0.097125
C       0.534088   -0.582456   -1.128652
C       1.154675   -0.040343   -2.223736
N       1.622542   -1.140319   -2.916044
C       2.337944   -1.136267   -4.127736
O       2.733577   -2.112138   -4.692563
N       1.306878   -2.287229   -2.259754
N       0.659014   -1.956632   -1.195682
H       1.059933    1.694383    0.356281
H      -0.352668    1.997901   -0.680566
H      -0.585047    1.685449    1.040671
H      -0.233282   -0.605050    0.709859
H       1.304696    0.966187   -2.569914
H       2.483003   -0.100204   -4.484484
