17

C      -0.006451    1.473449    0.098533
N       0.167172    0.029253    0.076196
C       1.504898   -0.440833   -0.238824
C      -0.922116   -0.766371    0.324937
O      -2.006561   -0.319661    0.654383
C      -0.739453   -2.266950    0.186263
C      -1.328116   -3.132486    1.227793
O      -1.947507   -2.985523   -0.037636
H       0.270441    1.908318   -0.870014
H      -1.052064    1.688572    0.310706
H       0.624610    1.928304    0.872125
H       2.235563    0.210494    0.252913
H       1.675178   -1.450599    0.132377
H       1.711382   -0.420071   -1.318068
H       0.101796   -2.645508   -0.387012
H      -0.879019   -4.103826    1.431542
H      -1.850756   -2.653604    2.053242
