14

C      -0.035803    1.372323    0.047863
O       0.033574   -0.055875   -0.056098
C       0.641124   -0.550019   -1.120509
N       1.152520    0.213459   -2.030226
C       1.764752   -0.419927   -3.100048
N       2.333966    0.100284   -4.109175
N       1.731256   -1.826990   -3.023195
N       1.187323   -2.544840   -2.056301
N       0.627810   -1.951307   -1.078771
H       0.967733    1.803564    0.076556
H      -0.577386    1.792575   -0.802967
H      -0.567066    1.566660    0.978879
H       2.285950    1.115221   -4.037669
H       2.158037   -2.360895   -3.767890
