16

N      -0.220242    1.410376    0.002393
C      -0.041509   -0.034518    0.009882
C       0.725426   -0.558962   -1.147315
N       1.306647   -0.915129   -2.080862
C       0.657967   -0.459316    1.281262
N       1.384057    0.291403    1.995473
C       1.866393   -0.545645    3.107067
C       1.290938   -1.956808    2.810756
O       0.480734   -1.755396    1.623553
H       0.636232    1.848209    0.329817
H      -0.409769    1.737709   -0.938651
H      -1.020483   -0.529903   -0.009158
H       2.959955   -0.535618    3.132434
H       1.511801   -0.135925    4.058275
H       2.056665   -2.700110    2.574614
H       0.642994   -2.346381    3.598933
