21

C      -0.323969    1.553283    0.113592
C      -0.043481    0.055821    0.047053
C       0.461783   -0.541747   -1.276806
C       1.839685   -0.045129   -1.610134
C       1.690044   -1.128568   -0.577182
C       1.219939   -0.565760    0.768891
C       2.197617    0.326101    1.553878
C       1.650994    0.797960    2.821579
C       1.179416    1.162572    3.866058
H       0.511736    2.150736   -0.263968
H      -1.201346    1.801963   -0.493800
H      -0.521695    1.870861    1.141685
H      -0.933343   -0.483139    0.385364
H      -0.167870   -1.004200   -2.027845
H       2.229569   -0.379795   -2.566238
H       2.159458    0.957689   -1.339621
H       2.144728   -2.103147   -0.711950
H       0.895123   -1.372920    1.430610
H       3.113080   -0.249272    1.747203
H       2.506840    1.184423    0.946384
H       0.774430    1.493687    4.789861
