16

O      -0.330189    0.636782   -0.449617
C       0.013566    1.535852    0.286191
N       1.284918    1.736944    0.734934
C       2.396546    0.886048    0.350251
C       3.400888    1.655285   -0.478001
O       4.281669    2.532715    0.214697
C       4.865289    1.415465   -0.466809
C       5.498452    0.372867    0.399582
O       6.328463   -0.398996   -0.005387
H      -0.685047    2.298588    0.680937
H       1.471290    2.533446    1.323919
H       2.871690    0.462259    1.240034
H       1.971831    0.069168   -0.239170
H       2.992210    2.075234   -1.398603
H       5.426337    1.647684   -1.370920
H       5.155742    0.379043    1.456618
