18

C       0.001086    1.538121    0.173461
C      -0.043452    0.013523    0.044858
C      -1.474045   -0.558816   -0.120350
C      -2.151573   -0.137485   -1.430045
C      -1.432493   -2.048446    0.020541
N      -1.695095   -2.922542   -0.908317
O      -1.509845   -4.128170   -0.316574
N      -1.127137   -3.923146    1.005624
N      -1.080393   -2.685124    1.205049
H       1.026626    1.876318    0.348224
H      -0.359792    2.039862   -0.729103
H      -0.609599    1.881862    1.015751
H       0.563609   -0.310383   -0.810035
H       0.407315   -0.437397    0.935484
H      -2.070980   -0.191754    0.725947
H      -3.149519   -0.574728   -1.517155
H      -2.251986    0.948965   -1.475453
H      -1.568530   -0.466069   -2.295613
