13

O       0.017422    0.001814   -0.151253
C      -0.044186    1.182811    0.042356
C      -1.300610    2.031874    0.251462
C      -0.780374    3.378387    0.725010
N       0.054644    3.238345    1.915980
C       0.709306    3.449349    0.587085
C       1.195527    2.141898    0.051244
O       2.284252    1.858158   -0.367551
H      -1.821056    2.118933   -0.710542
H      -1.981655    1.557793    0.962730
H      -1.379222    4.272804    0.591430
H       0.099682    4.114345    2.431455
H       1.249957    4.366353    0.388650
