18

C       0.147611    1.539695    0.009964
N       1.282881    0.617921   -0.064140
C      -0.083138    0.062487    0.036146
C      -0.425865   -0.669687    1.268933
C      -1.342360   -1.637717    1.402248
C      -1.463829   -2.137788    2.826863
C      -0.375303   -1.356608    3.554181
O       0.944438   -1.610690    3.071513
C       0.252111   -0.439311    2.587464
H       0.083689    2.115634    0.929342
H      -0.162518    2.079601   -0.881285
H       1.623013    0.543194   -1.018636
H      -0.523922   -0.352592   -0.868346
H      -1.923493   -2.056842    0.587504
H      -2.454161   -1.926718    3.251828
H      -1.307169   -3.220502    2.906706
H      -0.453370   -1.145711    4.617449
H       0.716935    0.506426    2.845074
