16

N       0.009899    1.359301    0.078958
C       0.019673    0.100340    0.018910
O      -1.121971   -0.591695    0.224226
C      -1.074479   -1.990023    0.149747
C      -1.765056   -2.855478    1.253900
C      -3.194609   -2.292171    1.258238
C      -3.465733   -2.231876   -0.046272
C      -2.162955   -2.766982   -0.660581
O      -1.849203   -3.892854    0.222805
H       0.944231    1.721940   -0.098428
H       0.887383   -0.540065   -0.190873
H      -0.066284   -2.349926   -0.076430
H      -1.281029   -3.165629    2.178207
H      -3.780520   -2.012294    2.120079
H      -4.340783   -1.887697   -0.575632
H      -2.092167   -2.985221   -1.724619
