19

C       0.374558    1.181381   -0.228652
C      -0.049679   -0.159593    0.379959
O       0.282406   -0.187023    1.741251
C      -1.523154   -0.503534    0.194661
O      -2.181404   -0.859051    1.155625
C      -2.186257   -0.476684   -1.174800
O      -3.219016   -1.445154   -1.221996
C      -2.814138    0.907356   -1.476852
O      -3.557466    0.835024   -2.667136
H       1.430652    1.342903   -0.000585
H       0.254659    1.192315   -1.315403
H      -0.196457    2.005285    0.208261
H       0.485685   -0.963318   -0.163941
H      -0.488415   -0.558755    2.196826
H      -1.464598   -0.717676   -1.963582
H      -3.518111   -1.551480   -0.305877
H      -3.440385    1.194720   -0.615593
H      -2.048660    1.675502   -1.613766
H      -4.092222    0.033564   -2.587189
