20

C       0.659172    0.057152    0.482256
C      -0.607312    0.585557   -0.191281
N      -1.705847   -0.364879   -0.022365
C      -2.382388   -0.726033   -1.014105
O      -2.292700   -0.397132   -2.353388
C      -3.306292   -1.400037   -2.693691
C      -3.478082   -1.749537   -1.198347
C      -3.082902   -3.132722   -0.675449
O      -2.917897   -3.095998    0.723478
H       1.467237    0.791885    0.412435
H       0.472265   -0.155391    1.538888
H       0.996977   -0.868448    0.005786
H      -0.906207    1.526819    0.287053
H      -0.413744    0.806834   -1.248733
H      -4.160902   -0.938414   -3.192183
H      -2.874455   -2.184009   -3.321878
H      -4.436213   -1.444909   -0.770814
H      -3.865117   -3.868864   -0.890126
H      -2.165322   -3.465495   -1.190675
H      -2.335010   -2.345531    0.916515
