18

C       0.084385    1.532050    0.080043
C      -0.065592    0.044141   -0.031587
C      -0.947056   -0.755136    0.841187
N       0.518410   -0.912098    1.013891
C       1.045924   -1.762416   -0.133680
C       0.513777   -0.775401   -1.206287
C      -0.367468   -1.880140   -1.849584
C       0.114048   -2.846612   -0.736937
O      -0.118970   -3.989047   -0.475084
H       1.101558    1.847595   -0.176096
H      -0.608380    2.042230   -0.600053
H      -0.128878    1.868128    1.098789
H      -1.391893   -0.235878    1.685326
H      -1.550327   -1.579710    0.473608
H       2.094815   -2.017963    0.017915
H       1.186958   -0.224962   -1.860259
H      -1.446628   -1.715481   -1.917660
H      -0.003509   -2.202276   -2.831288
