22

C      -0.042815    1.565673    0.219154
C      -0.022816    0.038960    0.029985
C       0.875578   -0.633501    1.075342
C      -1.431624   -0.508481    0.011025
C      -2.250600   -0.927521    1.203845
C      -1.964565   -1.934094    0.113344
C      -2.831126   -1.687458   -1.153706
N      -3.763805   -0.559001   -0.893656
C      -2.343397   -0.301043   -1.247272
H       0.966505    1.984829    0.148526
H      -0.663390    2.055093   -0.538564
H      -0.451432    1.827302    1.201348
H       0.414880   -0.167786   -0.959138
H       0.883480   -1.722013    0.959780
H       1.906363   -0.278571    0.976942
H       0.545990   -0.402319    2.093912
H      -1.680814   -1.092104    2.112652
H      -3.254257   -0.549699    1.351115
H      -1.418724   -2.851725    0.292842
H      -3.033437   -2.413043   -1.930757
H      -4.308543   -0.423664   -1.745188
H      -2.077614    0.293827   -2.112460
