8

N       0.026603   -1.143288   -0.003905
C       0.002908    0.013177    0.002725
C      -0.052392    1.426774    0.011250
C      -1.132653    2.263103    0.030477
O      -0.715814    3.510464    0.031736
N       0.744282    3.445107    0.011518
N       1.067562    2.242717    0.000390
H      -2.194775    2.077660    0.043888
