14

C      -0.115153    1.354488   -0.085845
C       0.071422   -0.137769    0.011773
N       1.225967   -0.657782    0.060109
N      -1.159258   -0.828978    0.039686
C      -1.341459   -2.173894    0.122938
N      -0.427534   -3.106971    0.194584
O      -1.165768   -4.264251    0.258171
N      -2.499461   -3.955098    0.221155
N      -2.623959   -2.705102    0.139875
H       0.864632    1.828416   -0.103114
H      -0.661037    1.624418   -0.997085
H      -0.684392    1.737036    0.769041
H       1.204471   -1.675069    0.124701
H      -2.013354   -0.294651   -0.005738
