24

C       0.086834    1.586091    0.012746
C       0.033004    0.056185   -0.005141
C      -1.397765   -0.492730    0.025834
C      -1.451014   -2.023140    0.004075
C      -2.880691   -2.610447    0.019084
C      -2.882889   -4.149999   -0.127868
C      -4.280895   -4.764138   -0.220902
C      -3.592519   -2.209436    1.238843
N      -4.142350   -1.905082    2.209553
H       1.118993    1.949042   -0.008303
H      -0.433489    2.010904   -0.852882
H      -0.389880    1.987565    0.913626
H       0.547451   -0.319517   -0.899751
H       0.589993   -0.340544    0.853817
H      -1.911129   -0.121815    0.921824
H      -1.957581   -0.097085   -0.833302
H      -0.954384   -2.398105   -0.899326
H      -0.894041   -2.428183    0.857998
H      -3.438629   -2.183604   -0.826208
H      -2.307414   -4.389799   -1.029372
H      -2.336593   -4.583777    0.717656
H      -4.219152   -5.850335   -0.333589
H      -4.868488   -4.551520    0.677186
H      -4.830817   -4.370094   -1.082618
