17

O      -0.010212    1.408702    0.091907
C       0.014062   -0.007580   -0.018938
C      -1.389072   -0.511760   -0.001740
C      -2.531066    0.212378   -0.019740
N      -3.677744   -0.563995   -0.120229
C      -3.283929   -1.971458    0.028346
C      -1.766087   -1.911429    0.001152
N      -0.943300   -2.895060   -0.034490
O      -1.658294   -4.117102    0.003783
H       0.893502    1.726482    0.016744
H       0.515210   -0.329184   -0.947518
H       0.577518   -0.469443    0.808541
H      -2.611059    1.290181   -0.008479
H      -4.492644   -0.256829    0.390110
H      -3.638522   -2.406055    0.971671
H      -3.671746   -2.595373   -0.783716
H      -0.950020   -4.766661   -0.048918
