19

O      -0.003395    1.438134   -0.307811
C      -0.024651    0.056547   -0.089022
C       0.252783   -0.537487    1.326107
C      -0.829806    0.143101    2.186459
C      -2.055429    0.000111    1.215306
C      -1.366284   -0.731439    0.045980
C      -0.536584   -1.803139    0.809855
C       0.264260   -2.791766    0.010571
O       0.382050   -2.805470   -1.190342
H      -0.591954    1.870134    0.318728
H       0.614794   -0.381649   -0.852677
H       1.258154   -0.614982    1.740692
H      -0.985187   -0.367333    3.140192
H      -0.577441    1.184109    2.413827
H      -2.869102   -0.585286    1.650829
H      -2.479579    0.963043    0.912209
H      -1.963738   -0.995330   -0.825058
H      -1.054051   -2.349691    1.607352
H       0.769981   -3.564688    0.635345
