20

C       0.362314    0.908250   -0.324579
O      -0.249882   -0.134593    0.424358
C       0.593218   -0.945864    1.090229
N       0.153639   -1.944265    1.720732
C       1.108396   -2.728873    2.456589
C       1.279754   -4.197964    2.242401
C       1.186490   -4.537956    0.749361
C       2.401782   -3.597362    0.473586
C       2.448376   -3.222138    1.961350
H       0.951551    0.509470   -1.159371
H      -0.449061    1.519893   -0.720718
H       1.006878    1.532678    0.306085
H       1.651565   -0.649904    1.039267
H       1.119419   -2.465717    3.513546
H       1.163063   -4.907837    3.053196
H       1.407468   -5.583271    0.526097
H       0.240759   -4.263568    0.274173
H       3.287440   -4.159870    0.169353
H       2.249785   -2.782429   -0.241765
H       3.358458   -3.066219    2.530548
