13

N       0.092170   -1.168010    0.037217
C       0.035267   -0.014532   -0.002899
C      -0.086581    1.419589   -0.071721
C      -1.142711    2.223326    0.743926
C      -0.905843    3.321077   -0.291075
C       0.580308    3.184160   -0.666655
O       1.149272    2.155096    0.147437
C      -0.426099    2.316577   -1.334267
H      -2.138665    1.786935    0.648728
H      -0.886910    2.402730    1.791487
H      -1.471845    4.228344   -0.452508
H       1.218154    3.978667   -1.026865
H      -0.694786    2.096603   -2.357201
