22

C       0.023199    1.444010   -0.256028
C       0.007778   -0.049171    0.104295
C       0.815131   -0.334727    1.378490
C      -1.416413   -0.573013    0.187594
C      -2.386146   -0.049337    1.258743
C      -3.313913   -1.218386    1.516177
C      -2.957187   -2.298899    0.815661
C      -1.792891   -2.001618   -0.069473
N      -2.011071   -0.955347   -1.102494
H       1.047650    1.801189   -0.403326
H      -0.535987    1.624358   -1.179050
H      -0.425227    2.051222    0.539242
H       0.474799   -0.595049   -0.724376
H       0.800133   -1.400183    1.629596
H       1.859260   -0.033279    1.246296
H       0.425653    0.218217    2.240603
H      -1.856238    0.243596    2.174164
H      -2.926363    0.845400    0.922169
H      -4.171482   -1.147729    2.175768
H      -3.451468   -3.263154    0.838604
H      -1.080304   -2.773899   -0.342351
H      -3.002348   -0.721111   -1.130296
