19

C      -0.297051    1.512223   -0.181095
C      -0.072326    0.016604   -0.006149
C       1.024762   -0.604114   -0.958616
C       1.844658   -0.974724    0.292035
C       3.227745   -0.655051    0.827680
C       2.888154    0.111220    2.108000
C       1.570393    0.297855    2.282788
C       0.834897   -0.380735    1.183957
O       1.034791   -1.808052    1.119615
H       0.648257    2.064659   -0.138301
H      -0.767076    1.724335   -1.147010
H      -0.949377    1.908987    0.604300
H      -1.025275   -0.519929   -0.009169
H       0.726671   -1.441539   -1.594132
H       1.507272    0.163353   -1.570479
H       3.830532   -1.547201    1.033401
H       3.801811   -0.037366    0.125847
H       3.654041    0.406221    2.818578
H       1.114226    0.813070    3.119175
