17

C      -0.157631    1.436196    0.005716
N       0.170833    0.027830    0.071627
C       0.683190   -0.642224   -1.024525
C       1.234873   -0.015021   -2.147308
N       1.772990   -0.658821   -3.190150
C       1.773181   -1.987875   -3.161338
C       1.239133   -2.728136   -2.104992
C       0.690265   -2.052295   -1.029439
O       0.131524   -2.662816    0.056279
H       0.748426    2.041400   -0.111442
H      -0.839217    1.687167   -0.822275
H      -0.630571    1.730543    0.944988
H      -0.433726   -0.538111    0.645407
H       1.244138    1.069491   -2.202611
H       2.212619   -2.497557   -4.014717
H       1.252804   -3.814570   -2.124925
H       0.166378   -3.617555   -0.061979
