19

C      -0.138879    1.641286   -0.195343
C      -0.056278    0.149171   -0.006669
C       0.629087   -0.876443   -0.935209
C       1.847121   -0.995276    0.064934
C       0.827760   -0.493508    1.077253
C       0.117425   -1.203944    1.960029
C      -1.360864   -1.196536    1.570348
C      -1.245089   -0.814444    0.079335
O      -0.475273   -1.794274   -0.707261
H       0.858396    2.087066   -0.276951
H      -0.697698    1.898525   -1.101552
H      -0.639102    2.116070    0.656209
H       0.846587   -0.748211   -2.000412
H       2.299201   -1.971952    0.248859
H       2.615061   -0.278200   -0.248793
H       0.530847   -1.964017    2.614653
H      -1.794865   -2.193457    1.704149
H      -2.006439   -0.489490    2.110808
H      -2.188479   -0.574077   -0.424588
