18

C      -0.207913    1.562106    0.158648
C      -0.018375    0.098801   -0.136191
N      -0.880075   -0.748725    0.240024
C      -0.902547   -2.150696   -0.005263
C      -1.504409   -2.685984   -1.292416
C      -0.048742   -2.905394   -1.000543
O       0.872368   -2.195522   -1.782942
C       1.693186   -1.358655   -1.037918
O       1.142238   -0.063478   -0.842910
H       0.626338    1.940566    0.758091
H      -0.216451    2.133497   -0.775216
H      -1.145621    1.712395    0.690762
H      -1.173298   -2.705968    0.889234
H      -2.188376   -3.525543   -1.246305
H      -1.720719   -1.950500   -2.059166
H       0.293190   -3.904290   -0.733101
H       1.933836   -1.801129   -0.061287
H       2.602942   -1.183694   -1.615675
