19

C      -0.210847    1.527222    0.013380
C       0.047054    0.012527    0.027738
C       0.754626   -0.473598   -1.224303
C       1.876681   -1.184264   -1.107959
C       2.349253   -1.462846    0.298730
O       1.193764   -1.850513    1.119984
C       0.886627   -0.424890    1.239702
C       2.404816   -0.134110    1.101595
O       3.100994   -0.206733    2.317696
H       0.724133    2.093265   -0.045453
H      -0.824529    1.808678   -0.848100
H      -0.741815    1.841841    0.918151
H      -0.927193   -0.493745    0.099649
H       0.317389   -0.233287   -2.189873
H       2.442503   -1.545204   -1.960018
H       3.178369   -2.168034    0.385645
H       0.418573   -0.179372    2.198659
H       2.741198    0.765320    0.584420
H       2.788277   -1.000520    2.769951
