19

C       0.004183    1.498104    0.266692
O       1.255809    1.926843   -0.257507
C       2.016448    0.807184   -0.753649
C       2.369247    1.055563   -2.253754
C       3.793963    1.544083   -2.221093
C       4.349845    1.390015   -1.021061
C       3.399166    0.770109   -0.030370
C       1.124246   -0.375388   -0.492253
C      -0.009128    0.007671    0.081669
H      -0.081417    1.790222    1.325541
H      -0.819843    1.994818   -0.270056
H       2.275801    0.135197   -2.846606
H       1.664156    1.779438   -2.675023
H       4.290547    1.951373   -3.094880
H       5.370246    1.652125   -0.764033
H       3.326843    1.318601    0.914372
H       3.695521   -0.258300    0.218278
H       1.413484   -1.385166   -0.755765
H      -0.835516   -0.623293    0.383312
