21

C      -0.945803    0.998484   -0.025290
C       0.120571   -0.094386    0.017715
C       1.192717    0.006608   -1.098117
C       2.387656   -0.669680   -0.482946
C       2.253177   -0.817855    0.844182
C       3.199049   -1.383261    1.732765
C       3.965624   -1.859087    2.532655
C       0.937801   -0.218028    1.341728
C       1.191345    1.097951    2.095742
H      -0.509053    1.996526    0.082606
H      -1.482153    0.974915   -0.979998
H      -1.686401    0.868992    0.771240
H      -0.378850   -1.061492   -0.120076
H       0.866245   -0.463645   -2.032956
H       1.424060    1.053454   -1.349251
H       3.262489   -0.970871   -1.047502
H       4.653608   -2.280394    3.222716
H       0.437984   -0.908014    2.031582
H       1.666562    1.844694    1.450805
H       0.259917    1.522765    2.481985
H       1.858722    0.921644    2.944718
