20

C       0.674129    1.316112   -1.716550
N       0.363631    0.025534   -1.122262
C       0.867145   -0.176297    0.225025
C      -0.408228   -0.850317   -1.829512
O      -0.884799   -0.589155   -2.924731
C      -0.732544   -2.210739   -1.217086
C      -2.078716   -2.279137   -0.530316
C      -0.167912   -3.389868   -1.881057
O       0.332164   -2.957147   -0.608070
H       1.760059    1.465991   -1.751668
H       0.264058    1.339675   -2.724579
H       0.235686    2.130256   -1.125410
H       0.478722    0.604402    0.892552
H       0.585341   -1.150346    0.612756
H       1.962614   -0.111584    0.236561
H      -2.864813   -1.967466   -1.223935
H      -2.279971   -3.298977   -0.192951
H      -2.110800   -1.615864    0.340682
H      -0.722382   -4.326973   -1.867860
H       0.512150   -3.260348   -2.720235
