19

C      -0.328703    1.205511    0.891718
N       0.025014    0.140262   -0.044108
C      -1.124131   -0.702786   -0.398392
C      -1.091051   -1.905790    0.551399
O      -1.934769   -2.754983    0.712048
C       0.253749   -1.871090    1.220208
C       0.317716   -2.216395    2.673163
N       0.848361   -3.132395    1.667776
C       1.041717   -0.785863    0.501516
H       0.561516    1.801690    1.112362
H      -1.064563    1.867150    0.425136
H      -0.749118    0.852308    1.850905
H      -2.071932   -0.163025   -0.341093
H      -1.025002   -1.082704   -1.426132
H       1.062639   -1.721572    3.290817
H      -0.616191   -2.470420    3.168152
H       0.164178   -3.873163    1.503931
H       1.615827   -1.229397   -0.322181
H       1.741599   -0.249318    1.144969
