22

C      -0.619845    0.808511   -0.352901
O       0.605216    0.289678    0.147998
C       1.337198   -0.483786   -0.803328
C       0.835632   -1.912597   -0.914143
C       0.804686   -2.661071    0.409678
O      -0.181109   -2.165910    1.297792
N      -0.285688   -2.126405   -1.853144
C       1.026776   -2.717464   -2.157347
C       1.736266   -2.250990   -3.407781
H      -0.446744    1.418582   -1.250616
H      -1.331583    0.014572   -0.601557
H      -1.036295    1.442879    0.433522
H       1.314241    0.013753   -1.780145
H       2.371539   -0.486514   -0.439749
H       0.561993   -3.715666    0.233390
H       1.808663   -2.630867    0.867055
H      -0.010478   -1.216517    1.371674
H      -0.924356   -2.820943   -1.471900
H       1.126378   -3.788814   -1.979341
H       1.553712   -1.193089   -3.606136
H       2.816965   -2.411604   -3.329289
H       1.376515   -2.814696   -4.275223
