19

C      -0.106557    1.552715    0.089331
C       1.439123    1.424352    0.019381
O       1.306084    0.166853    0.753554
C       0.023276    0.019000    0.067700
C       0.309784   -0.462498   -1.412994
C       1.832263   -0.449282   -1.580891
C       1.958008    1.085664   -1.431832
C       0.936025    1.491496   -2.503651
O      -0.123724    0.521955   -2.372407
H      -0.408462    1.901958    1.077894
H      -0.674692    2.052772   -0.690065
H       2.067934    2.144470    0.546549
H      -0.668040   -0.619468    0.621394
H      -0.199983   -1.396075   -1.656031
H       2.371553   -1.012282   -0.825089
H       2.120994   -0.783829   -2.580900
H       2.955821    1.487284   -1.617083
H       0.526283    2.498892   -2.372643
H       1.370012    1.426617   -3.509953
