17

C       0.113738    1.375352    0.155868
N      -0.252433    0.011269   -0.162140
C       0.543231   -0.646132   -0.877418
O       0.285550   -1.945654   -1.170687
C       1.045600   -2.538217   -2.148392
C       1.396906   -2.019031   -3.376166
N       2.122324   -2.994903   -4.018927
C       2.221689   -4.108102   -3.228860
C       1.560508   -3.856448   -2.048924
H       0.198133    1.489515    1.242730
H       1.062388    1.704990   -0.299074
H      -0.680952    2.054483   -0.173317
H       1.486121   -0.277236   -1.306520
H       1.173730   -1.073809   -3.840763
H       2.512762   -2.902825   -4.939526
H       2.754328   -4.982854   -3.564475
H       1.451209   -4.522174   -1.208337
