12

N       0.004114    1.340740    0.114468
C      -0.061670   -0.008321    0.041204
N      -1.184944   -0.639934    0.024314
C      -1.119018   -2.026418   -0.001832
N      -2.116071   -2.827222   -0.014894
C       0.231769   -2.605130   -0.021075
N       1.327678   -1.949181   -0.014438
O       1.186504   -0.539362    0.019857
H       0.877122    1.795921   -0.090875
H      -0.853814    1.843422   -0.037860
H      -2.981409   -2.281429    0.000103
H       0.340830   -3.685024   -0.046345
