17

O      -0.047649   -0.051575   -0.159975
C      -0.051718    1.144730   -0.023872
C      -1.285820    2.059439    0.072472
C      -0.679639    3.370212    0.595045
C      -0.007820    3.084466    1.974563
C       1.401808    2.814603    1.419184
O       1.642178    4.047860    0.677789
C       0.654204    3.509734   -0.227786
C       1.146074    2.069195    0.052780
H      -1.701652    2.176528   -0.937887
H      -2.067184    1.625822    0.701677
H      -1.342827    4.233502    0.569039
H       0.015991    3.954284    2.632925
H      -0.457521    2.241791    2.507169
H       2.208954    2.525799    2.090762
H       0.631670    3.975030   -1.212763
H       2.056442    1.734780   -0.438636
