18

C       0.083228    1.389238    0.271788
N      -0.041427   -0.046486    0.138396
C      -1.246508   -0.642038   -0.050281
O      -2.328834   -0.089413   -0.129660
N      -1.153879   -2.037537   -0.155180
C      -2.213862   -3.026854   -0.360029
C      -1.096915   -4.117818   -0.321195
C      -0.118378   -2.955956   -0.111719
N       1.120074   -2.731636    0.049964
H       0.715926    1.809599   -0.518406
H      -0.915501    1.820033    0.192031
H       0.512371    1.663684    1.242323
H       0.775937   -0.645801    0.183214
H      -2.941249   -3.064374    0.454319
H      -2.736434   -2.917710   -1.313277
H      -1.154572   -4.817202    0.514783
H      -0.950342   -4.671297   -1.250424
H       1.663492   -3.591155    0.041462
