18

C      -0.062895    1.462626    0.133224
C      -0.035504    0.009407    0.050679
C      -0.020507   -1.191325   -0.036397
C       0.003153   -2.649772   -0.114263
C       0.689823   -3.298682    1.110704
C      -0.476750   -3.393101    2.097969
O      -1.638464   -3.626500    1.281688
C      -1.411332   -3.227261   -0.003539
N      -2.231571   -3.331645   -0.954172
H       0.497287    1.825004    1.002236
H       0.379218    1.917851   -0.759730
H      -1.089625    1.834426    0.220768
H       0.444501   -2.968215   -1.061700
H       1.044283   -4.299716    0.847054
H       1.527799   -2.715181    1.492779
H      -0.394483   -4.220497    2.805913
H      -0.614214   -2.458188    2.653555
H      -3.108765   -3.741202   -0.627519
