17

O      -0.120720    1.250606    0.182550
C      -0.118445   -0.129550    0.009034
C      -1.438930   -0.844910   -0.080982
C      -2.741017   -0.081291    0.050517
C      -3.036381    0.252359    1.500501
O      -4.055315   -0.035505    2.074056
C      -0.557530   -0.709356   -1.332567
C      -0.885646    0.216378   -2.372027
C      -1.116794    1.045600   -3.214823
H       0.026817    1.668160   -0.675989
H       0.706404   -0.630665    0.511041
H      -1.457132   -1.849560    0.332019
H      -2.661828    0.866176   -0.494646
H      -3.580379   -0.647024   -0.362820
H      -2.217509    0.803972    2.012496
H      -0.052949   -1.613170   -1.659510
H      -1.345366    1.745577   -3.980432
