11

N       0.018882    1.318973    0.007875
C      -0.013346   -0.020848    0.000982
N      -1.180706   -0.626351    0.004173
C      -1.220680   -1.974259   -0.002672
O      -2.153201   -2.712433   -0.001766
O       0.099298   -2.650029   -0.013626
C       1.182329   -1.906924   -0.015661
N       1.235533   -0.620977   -0.009091
H       0.905482    1.791126    0.005514
H      -0.845196    1.833025    0.015362
H       2.100305   -2.492911   -0.023849
