20

C       0.009339    1.405736    0.006967
N      -0.013456   -0.046697   -0.011992
C       0.549733   -0.664902   -0.959717
O       1.205384   -0.085483   -2.021131
C       1.726110   -1.110705   -2.886284
C       3.235887   -0.940025   -3.041850
C       1.295585   -2.393247   -2.230382
C       0.616248   -2.131254   -1.110888
C      -0.003066   -3.052162   -0.114706
H       0.759935    1.851863   -0.655764
H      -0.975884    1.793246   -0.283523
H       0.192209    1.746022    1.031802
H       1.245257   -0.984233   -3.867792
H       3.734475   -1.052393   -2.075112
H       3.632576   -1.693256   -3.730082
H       3.465878    0.050144   -3.444221
H       1.532316   -3.367688   -2.638471
H       0.422756   -2.882413    0.879583
H      -1.075922   -2.852725   -0.025669
H       0.142748   -4.099400   -0.389989
