21

C      -0.010716    1.516794   -0.022163
C      -0.023956    0.001840    0.008782
C      -0.872429   -0.685137    1.048260
C       0.633741   -0.719253    1.170779
C       1.400992   -2.014855    0.916170
O       1.690760   -2.256127   -0.453532
C       0.541946   -2.120344   -1.261293
C       0.107277   -0.650333   -1.353657
O      -1.143530   -0.527248   -2.027617
H       0.935347    1.896921   -0.425787
H      -0.822570    1.891686   -0.653709
H      -0.139229    1.935898    0.980663
H      -1.432024   -0.057807    1.733949
H      -1.381123   -1.605502    0.780114
H       1.068042   -0.081576    1.935125
H       2.372334   -1.979242    1.416991
H       0.844946   -2.873889    1.327581
H       0.808317   -2.494404   -2.256032
H      -0.293967   -2.734998   -0.887943
H       0.892312   -0.108695   -1.904990
H      -1.006636   -0.751809   -2.953754
