18

C      -1.115072    1.099843   -0.433182
C      -0.119896   -0.048316   -0.371331
C       0.877658   -0.306639   -1.545358
O       1.069920    0.900389   -2.254208
C       2.021024   -0.606389   -0.509034
C       3.421597   -0.056453   -0.728459
C       1.116430    0.072365    0.536405
O       1.327649    0.612478    1.583782
H      -0.624388    2.017627   -0.762101
H      -1.931842    0.881300   -1.127618
H      -1.544334    1.273378    0.557892
H      -0.624947   -0.992147   -0.127453
H       0.618194   -1.129855   -2.221528
H       1.799289    0.776284   -2.869709
H       2.048205   -1.683556   -0.298929
H       3.378956    0.995009   -1.025759
H       3.999713   -0.116791    0.197913
H       3.961603   -0.616671   -1.499524
