20

C      -0.009816    1.505795   -0.070665
C       0.073832   -0.016528   -0.051219
C       1.221841   -0.617394   -0.907466
N       1.977495   -1.090799    0.308452
C       0.822444   -0.591439    1.154028
C       1.095173   -2.054381    1.043524
C       0.179608   -3.051020    0.350229
C       1.791221   -2.630186    2.173479
C       2.329334   -3.135944    3.121934
H       0.970861    1.956604    0.115600
H      -0.367061    1.863319   -1.042221
H      -0.699932    1.873428    0.696274
H      -0.921841   -0.441144   -0.219828
H       0.975940   -1.403912   -1.626202
H       1.819249    0.144324   -1.414478
H       0.990167   -0.064434    2.089441
H      -0.448146   -2.595399   -0.415840
H       0.771523   -3.846123   -0.113809
H      -0.477652   -3.513837    1.091530
H       2.819995   -3.576019    3.954357
