16

N      -0.120997    1.327553   -0.280172
C      -0.130798   -0.062861   -0.150546
C      -1.152448   -0.935786    0.033022
C      -2.623796   -0.687109    0.077092
O      -3.008745    0.394633   -0.772007
N      -0.561084   -2.205534    0.213081
C       0.817064   -2.140832    0.148947
O       1.633527   -3.031722    0.277040
N       1.055928   -0.787919   -0.109115
H       0.427690    1.642362   -1.074536
H      -1.072528    1.665821   -0.379439
H      -3.164645   -1.611910   -0.182204
H      -2.971495   -0.390366    1.074998
H      -2.726557    0.161311   -1.663939
H      -1.039120   -3.062625    0.426093
H       1.983447   -0.401169   -0.096936
