16

O      -0.195979    1.410125   -0.018829
C      -0.091905    0.033872    0.040833
C      -0.339571   -0.860439   -1.136090
C      -1.255090   -0.957890    0.074052
C      -0.544714   -1.713666    1.168700
C      -1.102199   -2.465136    2.289667
O      -0.414876   -3.126663    1.215616
C       0.641065   -0.725169    1.162609
H       0.534666    1.746646   -0.549231
H      -0.795384   -0.362047   -1.985784
H       0.333005   -1.676735   -1.387199
H      -2.320587   -0.781450   -0.002831
H      -0.586188   -2.469048    3.249522
H      -2.174793   -2.651057    2.339911
H       1.624205   -1.142465    0.923190
H       0.701174   -0.140634    2.084120
