23

C      -0.657282   -0.677533   -1.032850
C       0.100529   -1.424770    0.045019
C       1.611384   -1.533162    0.050564
C       2.466542   -0.799892   -0.963175
C       0.897765   -0.812837    1.182248
C       1.104265    0.639997    1.517765
C       2.493915    0.979346    2.023105
C       0.251369    1.735024    1.019255
O       0.056794    1.210707    2.329433
H      -0.119262    0.194056   -1.410271
H      -0.837374   -1.341048   -1.886423
H      -1.634453   -0.339330   -0.671387
H      -0.413816   -2.336205    0.341576
H       2.008744   -2.512029    0.308265
H       2.129093    0.225841   -1.133162
H       3.508373   -0.747997   -0.628730
H       2.459383   -1.315868   -1.930000
H       0.844169   -1.387823    2.105642
H       3.242754    0.863036    1.234168
H       2.525102    2.008307    2.390403
H       2.770787    0.314137    2.848310
H       0.664503    2.743765    0.973970
H      -0.555422    1.543228    0.318927
