17

C      -0.021369    1.488480    0.148419
C      -0.009471    0.010800   -0.017191
C      -0.026495   -0.779908   -1.101568
C      -0.001106   -2.248285   -0.698631
C       0.033121   -2.148908    0.799974
C       0.068573   -2.826261    2.000827
C       0.080243   -1.795259    2.975642
N       0.054562   -0.571311    2.437160
N       0.026398   -0.825866    1.120510
H       0.867962    1.824729    0.691795
H      -0.051396    1.981567   -0.824884
H      -0.889098    1.805517    0.736403
H      -0.054329   -0.435325   -2.124488
H      -0.882919   -2.790027   -1.063402
H       0.874079   -2.770977   -1.104816
H       0.083981   -3.890652    2.168168
H       0.106552   -1.901271    4.050566
