15

N       0.099687   -1.127298    0.048871
C       0.042066    0.028840    0.022032
C      -0.020747    1.444514   -0.002375
C      -0.040193    2.499805    1.078820
C       1.031801    2.528496   -0.012703
C       0.260409    3.290852   -1.101278
C      -0.536170    4.423265   -0.430944
C      -1.162060    3.253333    0.347464
N      -0.922945    2.322282   -0.865042
H       0.180733    2.391272    2.131569
H       2.090921    2.442448    0.186624
H       0.676408    3.359350   -2.105037
H       0.002486    5.198457    0.118001
H      -1.254500    4.866985   -1.124863
H      -2.159348    3.284609    0.783027
