17

C       0.050786    1.583326   -0.002269
C       0.012974    0.045968    0.075779
C       0.838697   -0.489878    1.259825
O      -1.331830   -0.459744    0.082509
C      -2.132933   -0.107260    1.190521
C      -3.460621   -0.696206    0.995465
N      -4.518392   -1.143038    0.878987
C       0.577518   -0.501946   -1.176571
N       1.065243   -0.904817   -2.142206
H       1.072177    1.922172   -0.191237
H      -0.590266    1.936218   -0.813040
H      -0.279338    2.029032    0.939956
H       0.507510   -0.040518    2.199991
H       0.744846   -1.576073    1.325671
H       1.893052   -0.238024    1.123294
H      -1.725709   -0.486905    2.138021
H      -2.252633    0.980471    1.291187
