19

O      -0.204233    1.508740   -0.190944
C       0.001323    0.117776    0.015722
C      -1.363213   -0.538297    0.025783
C      -2.179464   -0.597184   -1.290774
C      -2.682001   -2.001538   -0.869870
O      -2.872264   -3.006065   -1.816082
C      -1.463029   -2.101349    0.134598
C      -0.356837   -2.835728   -0.448616
C       0.511886   -3.467696   -0.993958
H       0.656096    1.931462   -0.266394
H       0.618419   -0.321151   -0.781888
H       0.515321   -0.074513    0.972164
H      -1.961793   -0.093303    0.826364
H      -2.922308    0.179936   -1.475745
H      -1.516046   -0.670258   -2.159147
H      -3.612049   -1.931721   -0.298776
H      -2.004862   -3.239532   -2.171969
H      -1.694636   -2.498476    1.126851
H       1.302098   -4.022893   -1.436224
