17

C       0.162211    1.719170    0.864078
C      -0.035564    0.470731   -0.024325
C       0.609778   -0.712199    0.534110
C       1.131846   -1.687605    1.006437
C      -1.541666    0.295669   -0.333641
O      -2.197241    1.227654   -0.750589
N      -2.060239   -0.957921   -0.121706
C      -3.385050   -1.289925   -0.364314
N      -3.795248   -2.470241   -0.139982
H       1.225022    1.952847    0.954871
H      -0.361543    2.562975    0.412626
H      -0.240120    1.546529    1.865833
H       0.415488    0.682773   -1.003534
H       1.603884   -2.545464    1.418794
H      -1.456604   -1.686735    0.237523
H      -3.959257   -0.442861   -0.744492
H      -4.784757   -2.548458   -0.368103
