21

C      -0.042836    1.520457   -0.160276
C      -0.120770    0.004237   -0.183759
O       0.912964   -0.482141   -1.036558
C       0.944163   -1.850917   -1.162326
C      -0.047682   -2.598201   -2.051089
C       1.428761   -2.705388   -2.332376
O       2.039425   -2.432893   -3.541243
C       2.082301   -3.687172   -1.368692
C       1.578563   -2.820963   -0.160695
H       0.929931    1.849498    0.215934
H      -0.175233    1.927777   -1.166782
H      -0.823230    1.932084    0.486771
H       0.003464   -0.406203    0.829736
H      -1.098896   -0.335181   -0.557206
H      -0.640578   -3.442078   -1.698026
H      -0.575706   -1.930179   -2.728607
H       1.474606   -1.841888   -4.049024
H       1.726896   -4.721156   -1.420124
H       3.170677   -3.675480   -1.455696
H       2.403848   -2.366665    0.392323
H       0.900863   -3.315477    0.543235
