13

C      -0.030534    1.546146    0.001414
C      -0.010702    0.007530    0.028881
C       0.745373   -0.530867    1.256470
O      -1.334973   -0.517646   -0.021542
C       0.652078   -0.486217   -1.198090
N       1.210686   -0.848280   -2.141590
H       0.982035    1.956093   -0.040320
H      -0.592807    1.898990   -0.865409
H      -0.513599    1.917549    0.911841
H       0.263108   -0.161844    2.168293
H       0.722779   -1.622416    1.262409
H       1.786167   -0.196463    1.260500
H      -1.792365   -0.210488    0.769406
