16

N      -0.079842    1.266157   -0.276443
C       0.008030    0.045340    0.037028
O       1.194421   -0.555803    0.336005
C       1.224708   -1.888494    0.876684
C      -0.106257   -2.615044    0.709551
O      -0.364924   -2.902743   -0.655495
C      -1.176827   -1.834531   -1.153179
C      -1.210538   -0.851574    0.032273
O      -1.136555   -1.755127    1.141946
H       0.841590    1.708962   -0.253545
H       2.021901   -2.426785    0.357236
H       1.471337   -1.817439    1.942632
H      -0.132201   -3.540164    1.292642
H      -0.727584   -1.406696   -2.053417
H      -2.180909   -2.207002   -1.384347
H      -2.115574   -0.252909    0.103063
