17

C       0.010598    1.534028   -0.094935
C      -0.040655    0.008308    0.099955
C      -1.430258   -0.548419    0.004111
N      -2.114385   -0.833260    1.105963
N      -3.318054   -1.274911    0.660742
C      -3.423883   -1.283988   -0.675521
C      -2.210725   -0.814512   -1.163124
C      -1.858202   -0.661567   -2.568077
O      -2.599781   -0.909844   -3.496144
H       1.037653    1.899911   -0.003366
H      -0.364243    1.823624   -1.081688
H      -0.601467    2.039825    0.657466
H       0.603097   -0.477917   -0.641737
H       0.355984   -0.250317    1.086095
H      -4.007336   -1.560199    1.336617
H      -4.309898   -1.612891   -1.194297
H      -0.825558   -0.291009   -2.752023
