19

C      -0.037101    1.574130    0.026802
C       1.492503    1.786476   -0.069200
C       1.767870    1.071514   -1.413445
C       1.273785   -0.303791   -0.925972
C       2.305005   -0.600050    0.193419
O       1.624054   -1.375482    1.199124
C       0.826206   -0.188259    1.373403
C       2.023674    0.734209    0.963702
C       0.052263    0.036357    0.048722
H      -0.480767    1.970090    0.947152
H      -0.579170    1.993493   -0.825855
H       1.861049    2.806418    0.036738
H       1.200696    1.497868   -2.246070
H       2.827266    1.048928   -1.692439
H       1.108729   -1.088907   -1.661611
H       3.290661   -0.979191   -0.078033
H       0.286016   -0.142508    2.319476
H       2.725283    1.034441    1.738211
H      -0.860133   -0.540653   -0.090590
