13

N       0.018512    1.403819    0.170569
C       0.012434    0.019523    0.026086
N      -1.026145   -0.777493   -0.001396
N      -0.603011   -2.112017   -0.038463
C       0.698936   -2.034624   -0.053119
N       1.823379   -2.809576   -0.088742
N       2.955640   -2.039324   -0.054187
C       2.550381   -0.803135    0.000858
N       1.169559   -0.737734   -0.002378
H       0.424533    1.885110   -0.626351
H      -0.935392    1.724361    0.295177
H       1.897815   -3.808527   -0.146740
H       3.205157    0.049894    0.048894
