19

O       0.621779    0.769560   -1.427201
C       0.134658   -0.021044   -0.373005
C       1.099383   -1.033466    0.155727
C       0.722614    0.167815    1.002628
C      -1.315107   -0.392404   -0.582399
O      -1.950448   -1.044077    0.554752
C      -3.044684   -0.123526    0.478266
C      -2.611474    1.276293    0.767702
C      -2.400387    0.691582   -0.617975
H       0.221451    1.642629   -1.341192
H       0.710358   -2.001399    0.451463
H       2.083723   -1.043739   -0.297520
H       1.462260    0.953239    1.112128
H       0.090025   -0.009132    1.863530
H      -1.395131   -1.039736   -1.465515
H      -4.045300   -0.519234    0.604584
H      -3.416917    2.002976    0.817522
H      -1.780000    1.465975    1.437035
H      -2.831220    1.116636   -1.513855
