18

C       0.006555    1.550152    0.004324
C      -0.008568    0.015599    0.040941
C       0.776172   -0.510500    1.250822
C      -1.470381   -0.529977    0.041632
C      -2.207199   -0.036849   -1.195196
O      -3.195992    0.646238   -1.176521
C      -1.454710   -2.051570    0.024288
O      -1.927527   -2.751204    0.879637
H       1.036685    1.918904   -0.015160
H      -0.510439    1.950070   -0.872847
H      -0.481468    1.964835    0.893073
H       0.477896   -0.355624   -0.873084
H       1.804189   -0.136087    1.228019
H       0.317529   -0.174748    2.187261
H       0.816794   -1.603358    1.276569
H      -2.013462   -0.195265    0.929711
H      -1.744918   -0.354581   -2.159170
H      -0.946420   -2.492932   -0.864953
