16

C      -0.064473    1.567787    0.068596
C       0.043577    0.054429   -0.017087
C       1.152479   -0.585694   -0.935352
C       1.723864   -1.301984    0.290193
N       2.107047   -0.253101    1.248471
C       0.682779   -0.686657    1.180191
C       0.019153   -1.232492    2.315807
N      -0.538947   -1.668706    3.232150
H       0.896094    2.005702    0.351129
H      -0.364665    1.986846   -0.897471
H      -0.812838    1.867050    0.809920
H      -0.926135   -0.396408   -0.243589
H       0.737611   -1.263997   -1.682598
H       1.843829    0.112956   -1.411635
H       2.152695   -2.294496    0.349211
H       2.524543   -0.705323    2.062045
