19

C      -0.113077    1.524980   -0.055445
C       0.098051    0.031940   -0.060915
C       1.289237   -0.649283   -0.767713
N       1.198613   -1.765063    0.245933
C       0.568642   -0.758234    1.178724
C       0.128683   -2.665782   -0.200582
C      -1.149241   -1.939170   -0.632977
N      -2.161908   -2.573872   -1.043434
O      -1.123978   -0.573698   -0.547219
H       0.785414    2.033607    0.305006
H      -0.338043    1.884741   -1.063968
H      -0.951166    1.791979    0.595309
H       1.160004   -0.944741   -1.812597
H       2.230822   -0.107104   -0.645132
H       1.343751   -0.241228    1.750979
H      -0.197326   -1.149956    1.853726
H       0.487591   -3.268862   -1.040030
H      -0.121869   -3.361035    0.606288
H      -2.915232   -1.926738   -1.286103
