20

C      -0.027307    1.535078    0.009602
C      -0.009730    0.025494   -0.022671
C       0.003122   -0.716957   -1.357605
C      -0.744136   -1.843592   -0.584192
C       0.325939   -2.721122    0.010839
C       1.152462   -2.089462    0.847787
C       0.720659   -0.689616    1.197829
C      -0.731695   -0.862231    1.752480
N      -1.277837   -0.750109    0.374828
H       0.934488    1.932222   -0.336270
H      -0.814360    1.924715   -0.643455
H      -0.200408    1.921390    1.019483
H      -0.657043   -0.202484   -2.061329
H       0.949227   -0.976236   -1.835306
H      -1.544508   -2.384996   -1.089054
H       0.428167   -3.757300   -0.292439
H       2.001126   -2.553067    1.338802
H       1.454201   -0.112536    1.764527
H      -0.950402   -1.783797    2.297572
H      -1.085646    0.000798    2.324217
