19

C       0.311169    1.244123   -0.114960
C      -0.318600   -0.112038   -0.057907
C      -0.547526   -0.917875   -1.130604
C       0.746376   -1.271259   -1.897473
C       0.789499   -2.428784   -0.819153
C       0.844526   -2.138431    0.721305
C      -0.646083   -2.376505    0.869022
C      -0.157075   -0.980675    1.123531
C      -0.755652   -2.374845   -0.662081
H       1.325706    1.235469    0.308140
H       0.362356    1.616182   -1.141658
H      -0.263896    1.972067    0.471313
H       0.631736   -1.708278   -2.896182
H       1.532841   -0.513247   -1.915611
H       1.285478   -3.365758   -1.086361
H       1.650357   -2.398616    1.394633
H      -1.195590   -2.968661    1.588093
H      -0.065650   -0.619740    2.143220
H      -1.422817   -3.030525   -1.217536
