17

N      -0.429217    0.922150    0.796426
C      -0.660074   -0.067846    0.047410
O      -0.358721   -1.313415    0.462892
C      -0.792984   -2.381167   -0.385861
C      -2.243077   -2.707859   -0.193720
C      -3.006115   -2.388311    0.908120
N      -4.264258   -2.893652    0.705646
C      -4.322352   -3.533665   -0.505023
C      -3.082017   -3.434830   -1.089633
H      -0.686253    1.782719    0.317299
H      -1.087489   -0.035694   -0.964411
H      -0.583872   -2.136337   -1.437290
H      -0.146491   -3.223495   -0.118275
H      -2.751217   -1.841629    1.800638
H      -5.034206   -2.789722    1.342678
H      -5.234090   -3.994588   -0.849107
H      -2.802095   -3.837397   -2.051631
