21

C       0.110513    1.522777    0.099676
C       0.042335    0.028205   -0.045470
C       0.186380   -0.581194   -1.231849
C       0.090234   -2.012521   -1.541642
C      -0.112261   -2.306629   -3.014134
C       0.140361   -3.030925   -0.666165
C       0.397997   -3.030874    0.812869
O       0.756673   -1.806944    1.405828
C      -0.185280   -0.759781    1.225312
H       0.943155    1.817920    0.752032
H       0.238655    2.019287   -0.865497
H      -0.801364    1.919460    0.566275
H       0.348622    0.055615   -2.100630
H       0.728639   -1.925093   -3.606882
H      -0.201878   -3.378394   -3.205972
H      -1.014288   -1.813633   -3.397060
H       0.002911   -4.037907   -1.059862
H      -0.476059   -3.474876    1.327531
H       1.241680   -3.702644    1.023095
H      -0.078366   -0.102728    2.095258
H      -1.211810   -1.161437    1.243423
