17

C      -0.190845    1.574071   -0.023666
C       0.041693    0.063040    0.049815
C       0.889490   -0.492443   -1.155284
N       1.758488   -1.595302   -0.618242
C       1.811974   -1.325880    0.742424
C       0.880869   -0.432005    1.194955
N       0.956199   -0.352018    2.543829
N       1.905319   -1.142544    2.960427
N       2.437024   -1.769794    1.843265
H       0.760685    2.115462   -0.033716
H      -0.751522    1.844829   -0.924805
H      -0.761330    1.915097    0.844653
H      -0.935670   -0.439076    0.056477
H       0.264873   -0.876454   -1.964944
H       1.514462    0.316766   -1.556176
H       2.646104   -1.679278   -1.098270
H       3.192865   -2.422299    1.964839
