17

C      -0.026599    1.618740   -0.096482
C       0.037912    0.106262    0.024438
O      -1.210676   -0.471623    0.355449
C       0.668526   -0.688782   -1.147527
N       2.042583   -0.189092   -1.297299
C       1.755859   -1.238344   -0.266647
C       1.150640   -0.534493    0.892935
N       1.292870   -0.715806    2.137696
O       0.313188    0.039514    2.841892
H       0.928817    2.016734   -0.444910
H      -0.813867    1.895021   -0.805142
H      -0.261186    2.063629    0.874802
H      -1.342712   -0.308844    1.298234
H       0.124408   -1.175961   -1.945825
H       2.459926   -0.678153   -2.089461
H       2.264403   -2.192687   -0.280277
H       0.491308   -0.199431    3.757545
