16

C      -0.102057    1.566591    0.021491
C       0.019370    0.070207   -0.023927
C       0.739602   -0.790607   -1.064968
O       1.558332   -1.410208   -0.023709
C       0.950302   -0.654290    0.967705
O       1.184850   -0.668890    2.131510
C      -0.592892   -1.489442   -1.349638
C      -1.193177   -2.072843   -0.137519
N      -1.323309   -0.615642   -0.328795
H       0.882317    2.043425    0.045893
H      -0.654899    1.929395   -0.849091
H      -0.650854    1.862328    0.921030
H       1.338051   -0.417994   -1.892846
H      -0.997103   -1.642104   -2.344217
H      -2.144984   -2.579392   -0.264298
H      -0.570870   -2.478972    0.653868
