25

C      -1.154605    0.687028    2.247640
C      -0.902153    0.514171    0.743673
C       0.403726   -0.242281    0.494546
O       1.468168    0.499898    1.077805
C      -2.107617   -0.170596    0.069055
C      -2.072193   -0.299590   -1.450017
C      -1.891777    0.997407   -2.218315
C      -1.493960   -1.559835   -2.056110
C      -2.987524   -1.336286   -2.059210
H      -0.298611    1.162194    2.730833
H      -2.042661    1.301301    2.429106
H      -1.318650   -0.284870    2.729815
H      -0.774398    1.513709    0.307724
H       0.332777   -1.249697    0.940737
H       0.564461   -0.372192   -0.584663
H       2.286748    0.020174    0.924169
H      -2.236520   -1.170076    0.507220
H      -3.008293    0.394688    0.346898
H      -0.917072    1.457403   -2.022403
H      -1.962906    0.827584   -3.297258
H      -2.663418    1.727468   -1.945367
H      -0.962963   -1.480049   -2.999326
H      -1.096575   -2.318277   -1.389658
H      -3.594121   -1.939639   -1.391542
H      -3.467585   -1.103528   -3.004063
