12

O      -0.066030    0.006212   -0.239758
C      -0.015589    1.178456   -0.039670
O      -1.090883    1.964107    0.219260
C      -0.642021    3.299212    0.455516
O       0.638680    3.407314   -0.115154
C       1.219250    2.110610   -0.027339
C       2.017953    1.910933    1.179591
C       2.657214    1.754919    2.184189
H      -1.315298    3.997078   -0.046055
H      -0.626179    3.475562    1.540161
H       1.818052    1.940904   -0.926174
H       3.231934    1.611152    3.066365
