23

C      -0.059793    1.587272    0.100877
C       0.056110    0.059543    0.034563
C       0.732124   -0.487898   -1.241339
C       2.199831   -0.033903   -1.310320
C       0.595010   -2.032115   -1.348943
C      -0.871008   -2.486115   -1.454685
C       1.381137   -2.615450   -2.535327
H       0.915825    2.079400    0.149986
H      -0.586408    1.980758   -0.776210
H      -0.622509    1.894105    0.988414
H       0.610113   -0.303991    0.911675
H      -0.952036   -0.356471    0.121072
H       0.205872   -0.055840   -2.107690
H       2.663583   -0.286318   -2.266567
H       2.288613    1.048811   -1.188454
H       2.792104   -0.505284   -0.515828
H       1.016436   -2.461860   -0.427079
H      -0.928573   -3.574725   -1.557523
H      -1.466610   -2.212034   -0.580786
H      -1.351394   -2.047132   -2.337859
H       2.459350   -2.470709   -2.436003
H       1.201707   -3.692285   -2.620298
H       1.065886   -2.154882   -3.479989
