19

C       0.034335    1.481633   -0.110048
N      -0.021499    0.040675    0.078768
C      -1.280579   -0.676261    0.323545
C      -0.757544   -2.116950    0.195767
C       0.485705   -2.101193    0.683707
C       0.750459   -0.650517    1.120656
C      -0.135127   -0.521115    2.403988
N      -0.967041    0.702839    2.466621
C      -1.507197   -0.538512    1.865498
H       1.070706    1.749518   -0.348597
H      -0.568618    1.728714   -0.992166
H      -0.304312    2.089971    0.732919
H      -2.101818   -0.376006   -0.327382
H      -1.334922   -2.960745   -0.156326
H       1.166796   -2.929038    0.825526
H       1.788359   -0.326697    1.199371
H       0.137402   -1.042427    3.316016
H      -1.338438    0.800752    3.409761
H      -2.315701   -1.073529    2.353260
