23

C      -0.232260    1.473452   -0.092221
C       0.001604    0.010173    0.271258
C       0.907945   -0.762625   -0.731786
C       2.104929   -0.588331    0.252780
C       1.087408   -0.215444    1.365105
C       3.020080   -1.775574    0.452658
C       3.852497   -2.165696   -0.749896
C       3.478560   -2.141581    1.800824
O       2.436005   -2.884155    1.159383
H       0.710645    1.989724   -0.308312
H      -0.868894    1.563161   -0.979447
H      -0.722037    2.010396    0.727698
H      -0.958582   -0.470805    0.479330
H       0.619269   -1.813690   -0.820914
H       1.012296   -0.337939   -1.734285
H       2.717515    0.274618   -0.031136
H       1.331971    0.638204    2.003703
H       0.860551   -1.082231    1.990437
H       4.533647   -1.354662   -1.029966
H       4.442606   -3.060743   -0.538382
H       3.210318   -2.375712   -1.611720
H       4.421038   -2.674071    1.925287
H       3.165915   -1.551206    2.660999
