17

C       0.361943    0.751377   -0.656533
O       0.190602    0.882564    0.743482
C       0.662372   -0.153736    1.472113
C       1.287155   -1.337116    1.154661
C       1.539456   -2.016677    2.395231
C       2.204565   -3.349859    2.555176
C       1.059035   -1.219035    3.401290
N       0.522397   -0.077951    2.827666
H      -0.163541   -0.133681   -1.037450
H      -0.060953    1.650343   -1.107313
H       1.424823    0.673097   -0.918666
H       1.539129   -1.687301    0.166813
H       1.656851   -4.144336    2.033775
H       3.223988   -3.348505    2.150435
H       2.269636   -3.632646    3.610173
H       1.049852   -1.358693    4.470013
H       0.094428    0.694031    3.306937
