18

C      -0.028849    1.413227   -0.141321
N       0.002564   -0.021742    0.007807
C      -1.204602   -0.821011    0.130881
C      -0.698982   -2.261854    0.120794
C      -1.508072   -3.360979    0.747250
O      -0.020285   -2.561678   -1.103305
C       0.767360   -2.200869    0.049639
C       1.171792   -0.741503    0.019927
O       2.297054   -0.287861    0.012676
H       1.004323    1.760227   -0.197331
H      -0.560563    1.708084   -1.054826
H      -0.522184    1.890806    0.714572
H      -1.737462   -0.594074    1.065605
H      -1.894460   -0.639500   -0.704246
H      -2.484423   -3.449725    0.258211
H      -0.988853   -4.316520    0.645202
H      -1.679114   -3.163453    1.810218
H       1.453288   -2.950847    0.428152
