19

C      -0.334623    1.411603    0.167736
C      -0.025278   -0.046181   -0.110007
O       1.103174   -0.430767   -0.339519
C      -1.200237   -0.972586   -0.088970
C      -1.118002   -2.289139   -0.801128
C      -1.122483   -2.302883    0.708859
C       0.113233   -2.704070    1.485948
C      -2.430075   -2.680974    1.329792
O      -3.515085   -2.411545    0.873008
H       0.584857    1.997353    0.154033
H      -1.031061    1.798466   -0.585256
H      -0.831294    1.516147    1.139152
H      -2.179877   -0.509491   -0.042820
H      -2.014857   -2.635746   -1.301258
H      -0.170098   -2.510112   -1.279425
H       1.017757   -2.355601    0.988007
H       0.098767   -2.287772    2.499477
H       0.165855   -3.794845    1.574670
H      -2.336702   -3.256031    2.277942
