19

C      -0.369548    1.470143    0.015369
C      -0.024854   -0.010754    0.023525
N       0.777107   -0.382202   -1.158432
C       0.840119   -1.825459   -1.336511
C       1.369216   -2.474048   -0.068235
C       2.628354   -2.041921    0.612824
N       1.317705   -1.719346    1.180047
C       0.894011   -0.376285    1.191955
O       1.270670    0.403590    2.030771
H       0.538943    2.071527   -0.065998
H      -1.031209    1.707156   -0.824729
H      -0.874064    1.747591    0.942840
H      -0.952367   -0.611428    0.090492
H       0.407641    0.065709   -1.989241
H      -0.151322   -2.269708   -1.546798
H       1.488298   -2.061613   -2.188232
H       1.080482   -3.516801    0.049788
H       3.222569   -2.764256    1.165287
H       3.181976   -1.215539    0.176207
