18

C      -0.012490    1.536085    0.130916
C       1.304050    0.810578    0.016779
C      -0.007548    0.032021    0.028790
C      -0.062990   -0.607732   -1.348431
C      -0.204777    0.300488   -2.570978
C       1.127594    1.091393   -2.583171
C       1.038573   -0.285357   -3.160978
N       1.389721   -0.855696   -1.784646
C       1.873526    0.541784   -1.366165
H      -0.254278    1.958387    1.100931
H      -0.365809    2.118299   -0.712241
H       1.971898    0.795944    0.870263
H      -0.302920   -0.554379    0.891090
H      -0.648579   -1.527012   -1.399398
H      -1.090215    0.677960   -3.067866
H       1.213450    2.045438   -3.088950
H       1.286599   -0.717958   -4.118788
H       2.960178    0.615152   -1.432452
