19

C      -0.026567    1.494105    0.010998
C      -0.003439   -0.013648   -0.032390
C       1.006754   -0.719518   -0.934442
C       0.487328   -2.143495   -1.060002
C       0.081426   -2.790193    0.237927
O       0.250524   -2.039747    1.414451
C      -0.372485   -0.797497    1.203424
C      -1.289614   -0.847826   -0.003141
C      -0.985320   -2.179719   -0.646108
H       0.933762    1.896553    0.353969
H      -0.231185    1.916353   -0.980040
H      -0.800349    1.861463    0.693257
H       1.045400   -0.230603   -1.916059
H       2.017249   -0.688131   -0.508357
H       0.855120   -2.780518   -1.857057
H       0.203308   -3.854047    0.401992
H      -0.613317   -0.290475    2.131158
H      -2.282996   -0.419175   -0.017887
H      -1.745962   -2.755704   -1.154769
