15

O       0.094928    0.063716   -0.490920
C       0.073810    1.235006   -0.187454
N       1.125053    1.912422    0.370975
C       2.556606    1.568246    0.273267
C       3.081133    2.146287   -1.071509
N       3.677040    3.385738   -0.468195
C       2.326739    3.430094   -1.122596
C       1.519275    3.327169    0.203171
C       2.917022    2.988552    0.801651
H      -0.829052    1.873788   -0.276100
H       2.895373    0.609848    0.652615
H       3.522274    1.644563   -1.922424
H       2.134330    4.010022   -2.015957
H       0.837581    4.112389    0.519290
H       3.281910    3.246545    1.791660
