13

N       0.169523    1.425367    0.009145
C      -0.019338    0.031608    0.010754
C      -1.089148   -0.838176   -0.019407
O      -2.419479   -0.860293   -0.062918
N      -2.744127   -2.356555   -0.064812
N      -1.685478   -2.996900   -0.027266
C      -0.592701   -2.162159    0.004135
C       0.791863   -2.131607    0.049384
N       1.099138   -0.804003    0.052027
H      -0.207359    1.863473   -0.824790
H      -0.260932    1.872618    0.811702
H       1.544860   -2.899497    0.078285
H       2.030984   -0.421491    0.080370
