14

C       0.026536    1.541387    0.002642
C       0.058280    0.026729   -0.008143
O       0.746759   -0.440072   -1.145752
C       1.398022   -1.644260   -0.769797
C       1.552045   -1.527488    0.740613
O       2.202775   -2.176217    1.495131
O       0.769144   -0.468958    1.129054
C      -1.318854   -0.552114    0.023756
N      -2.384206   -0.997349    0.022166
H       1.054187    1.909464    0.011877
H      -0.483108    1.901066   -0.893693
H      -0.503198    1.900707    0.886779
H       0.804213   -2.534267   -1.019005
H       2.367457   -1.704766   -1.266627
