17

C      -0.253091    0.999662    1.173541
C      -0.086842   -0.067931    0.110692
O      -1.288007   -0.868539    0.108661
C      -1.333973   -1.882234   -0.758402
N      -0.409577   -2.175668   -1.567510
C      -2.693224   -2.602049   -0.655256
O      -2.742881   -3.759101   -1.457308
C      -3.039833   -2.894224    0.747109
N      -3.304373   -3.183080    1.833807
H       0.641976    1.627610    1.207225
H      -1.113983    1.638041    0.956255
H      -0.397489    0.549517    2.159398
H       0.051060    0.356419   -0.888873
H       0.767457   -0.722390    0.309316
H      -0.695430   -2.969112   -2.140571
H      -3.454283   -1.920886   -1.054105
H      -2.245574   -4.458299   -1.016016
