19

O       0.158088    1.403309    0.168392
C       0.029531    0.023261   -0.001174
C      -1.382373   -0.648258   -0.079169
C      -2.325087    0.204565   -0.944965
C      -1.634141    0.597407   -2.233770
C      -0.376702    0.197953   -2.453880
C       0.306823   -0.636540   -1.396028
C      -0.705643   -1.742509   -0.940924
O      -0.157793   -2.729072   -0.091513
H      -0.206194    1.824270   -0.620723
H       0.632116   -0.452051    0.772044
H      -1.851865   -0.978745    0.849438
H      -3.249415   -0.347269   -1.161815
H      -2.634799    1.100976   -0.389765
H      -2.178341    1.199787   -2.955758
H       0.155321    0.458891   -3.363479
H       1.325647   -0.931211   -1.655816
H      -1.308556   -2.184708   -1.744615
H       0.439481   -3.273995   -0.614173
