19

C      -0.000435    1.594488    0.152337
C      -0.018564    0.076292   -0.101633
C      -1.388860   -0.529276   -0.024910
C      -2.087752   -1.131716   -0.984409
C      -3.423519   -1.581120   -0.470099
O      -3.490772   -1.068253    0.860990
C      -2.232714   -0.565981    1.246576
C      -1.564790   -1.451104    2.302770
O      -1.929060   -2.556581    2.594775
H       1.016497    1.986676    0.060082
H      -0.635025    2.118137   -0.568928
H      -0.361322    1.841626    1.155688
H       0.401927   -0.133448   -1.090864
H       0.646871   -0.412388    0.622845
H      -1.758345   -1.293197   -2.003629
H      -4.266177   -1.177841   -1.049525
H      -3.522652   -2.677607   -0.462649
H      -2.355996    0.434508    1.695610
H      -0.677431   -0.978105    2.788794
