18

C      -0.162407    1.575024    0.028152
C      -0.016583    0.071268   -0.070062
C       0.924260   -0.586897   -1.076131
C       2.147646   -0.232708   -0.162448
N       1.017790   -0.577848    0.865860
C       1.065131   -1.825465   -0.102974
C       0.179594   -3.017937    0.067195
C       2.578685   -1.687816   -0.165483
O       3.558622   -2.364015   -0.237067
H       0.790714    2.096338   -0.096690
H      -0.850695    1.940921   -0.741478
H      -0.575244    1.849942    1.004360
H      -0.996934   -0.407605    0.039292
H       0.907263   -0.612668   -2.170797
H       2.705021    0.698138   -0.102284
H      -0.879423   -2.742044    0.071549
H       0.344297   -3.727776   -0.749436
H       0.405936   -3.525131    1.009523
