14

N      -0.046855    1.269034   -0.023659
C      -0.027202    0.014874   -0.013115
O       1.102309   -0.792242   -0.005569
C       0.603884   -2.132043    0.014378
C      -0.623292   -2.066825   -0.896130
C      -1.213293   -0.938886   -0.008036
C      -1.128775   -1.649090    1.354891
O      -1.856414   -1.626230    2.294433
O       0.040180   -2.386002    1.308426
H       0.899613    1.653581   -0.027882
H       1.416556   -2.828056   -0.169076
H      -0.387383   -1.752974   -1.913715
H      -1.208787   -2.986934   -0.896623
H      -2.173547   -0.487999   -0.229711
