19

C       0.395947    1.542441   -0.031024
C      -0.086494    0.112581    0.118574
O       0.515889   -0.785078   -0.852035
C       1.181421   -1.553673    0.154944
C       1.137818   -3.087603    0.066844
O       2.575133   -3.170927    0.163004
C       2.708941   -1.738954    0.074062
C       0.503989   -0.734571    1.280769
O       1.294100   -0.121592    2.260557
H       1.488653    1.610570    0.016542
H       0.086994    1.940052   -1.001970
H      -0.028297    2.176175    0.754148
H      -1.180408    0.073883    0.047253
H       0.634746   -3.618325    0.884525
H       0.759886   -3.449988   -0.897946
H       3.128515   -1.411239   -0.886043
H       3.301140   -1.329786    0.902090
H      -0.250613   -1.307538    1.824800
H       1.953946    0.431988    1.829879
