22

C      -0.427676    1.301064   -0.475079
O      -0.632436   -0.086069   -0.578230
C      -1.053816   -0.667517    0.637732
C      -1.170891   -2.156360    0.437485
N      -1.990151   -2.876862    1.425426
C      -2.422373   -2.844521    0.015879
C      -3.709743   -2.157078   -0.299905
C      -4.194374   -2.104442   -1.727401
C      -4.907347   -2.974317   -0.723598
H      -0.100607    1.658972   -1.454538
H      -1.351094    1.832431   -0.193394
H       0.346284    1.547245    0.270019
H      -0.322028   -0.459313    1.438218
H      -2.015104   -0.245765    0.968493
H      -0.239883   -2.619117    0.112808
H      -1.569638   -3.771544    1.658766
H      -2.266686   -3.754579   -0.565472
H      -3.921786   -1.292084    0.318748
H      -4.681859   -1.198939   -2.070583
H      -3.588656   -2.593103   -2.483688
H      -4.782494   -4.049510   -0.804619
H      -5.886916   -2.668077   -0.373942
