23

C       0.016661    1.523771    0.091772
C      -0.009174   -0.005449    0.039135
C       0.754395   -0.552534   -1.166712
C       0.633265   -2.069430   -1.328740
O       1.310196   -2.550562   -2.480525
O       0.590562   -0.581889    1.201090
C      -0.214565   -0.603057    2.367229
C       0.652827   -1.178895    3.476286
O       1.804148   -0.386799    3.690349
H       1.048951    1.884604    0.142617
H      -0.452696    1.943833   -0.803212
H      -0.523219    1.908772    0.961239
H      -1.056984   -0.346270   -0.017136
H       0.389781   -0.067017   -2.078508
H       1.813102   -0.278542   -1.057708
H       0.981349   -2.568588   -0.414544
H      -0.418268   -2.345097   -1.470313
H       2.253114   -2.415094   -2.343739
H      -0.537987    0.410614    2.644538
H      -1.112627   -1.222461    2.210666
H       0.090177   -1.197752    4.415433
H       0.919484   -2.216831    3.219658
H       2.180152   -0.238756    2.814521
