21

C      -0.024241    1.606206    0.177100
C       0.051097    0.101846    0.011300
C       0.425026   -0.580337   -1.266305
C       0.782473    0.152082   -2.544125
C       1.729444   -0.647676   -3.434374
O       1.929401    0.098821   -4.623709
C       1.375741   -0.668974   -0.058638
C       2.681533    0.021781   -0.051083
O       3.676644   -0.432989    0.464368
H       0.701166    2.144962   -0.435264
H      -1.019947    1.965272   -0.104396
H       0.148888    1.889733    1.220297
H      -0.697017   -0.422019    0.601031
H      -0.092217   -1.519419   -1.450754
H      -0.135081    0.351906   -3.110922
H       1.238152    1.126504   -2.348763
H       2.679176   -0.823132   -2.904819
H       1.291241   -1.636347   -3.649712
H       2.560761   -0.373373   -5.174068
H       1.413751   -1.621288    0.460121
H       2.714611    1.010777   -0.557376
