21

C      -0.116948    1.520309    0.076823
C      -0.007845    0.012652    0.065643
O      -1.182192   -0.649544   -0.334480
C       1.312740   -0.655070   -0.264684
C       0.742879   -0.708047    1.135173
C       1.399430   -0.161908    2.410689
C       1.334727   -1.610589    2.981330
O       1.001181   -1.815010    4.329774
C       0.318181   -1.987367    1.865609
H       0.801266    1.983267    0.449138
H      -0.297786    1.906860   -0.934013
H      -0.948923    1.840689    0.712791
H      -1.313441   -0.479203   -1.273962
H       1.272023   -1.566890   -0.852647
H       2.180062   -0.027476   -0.449800
H       2.384254    0.305209    2.328851
H       0.734346    0.511840    2.965147
H       2.287018   -2.127146    2.833586
H       0.143302   -1.406515    4.487911
H      -0.716214   -1.924591    2.223595
H       0.452399   -2.944530    1.356906
