15

O      -0.019212    0.008891    0.016610
C       0.014468    1.199767   -0.010066
O      -1.093633    2.001939   -0.009120
C      -0.637221    3.369278   -0.050103
C      -0.524943    3.930826    1.371626
C       0.675629    3.343809    2.074666
C       1.503579    2.509796    1.444515
C       1.206269    2.175859   -0.002061
O       0.633767    3.311119   -0.655255
H      -1.317080    3.933019   -0.690529
H      -0.446493    5.024360    1.321955
H      -1.447915    3.706139    1.919975
H       0.840782    3.622622    3.111044
H       2.349807    2.039132    1.931253
H       2.059061    1.814610   -0.573225
