18

C       0.055628    1.489186   -0.133178
C       0.031801    0.036153   -0.056248
C       0.002029   -1.165075    0.023363
C       0.007626   -2.609735    0.060929
C       1.063746   -3.260609   -0.818225
N      -0.312997   -3.218092    1.359977
C      -1.286599   -3.372501    0.262103
C      -2.581000   -2.656849    0.445616
O      -3.604882   -2.987449   -0.098355
H       0.874277    1.838463   -0.771681
H      -0.879982    1.880626   -0.547242
H       0.193599    1.934370    0.858112
H       2.063768   -2.956035   -0.493883
H       0.996037   -4.351937   -0.766403
H       0.941132   -2.955780   -1.861231
H       0.210681   -4.082872    1.476791
H      -1.368544   -4.324318   -0.257256
H      -2.522767   -1.785505    1.130181
