13

N       0.024663    1.335686    0.260940
C      -0.072635   -0.008138    0.030534
C      -1.121582   -0.887309    0.021336
C      -0.469926   -2.121095   -0.208006
O      -1.117816   -3.310166   -0.316297
C      -0.452229   -4.453402    0.067400
O      -0.931795   -5.525402   -0.112694
N       0.831774   -2.029523   -0.341397
O       1.086754   -0.651629   -0.174051
H       0.871686    1.764882   -0.082551
H      -0.807193    1.872527    0.071713
H      -2.171014   -0.702153    0.163869
H       0.512819   -4.232416    0.545074
