19

C       0.016306    1.571970   -0.509645
C      -0.097871    0.050370   -0.618504
C      -1.157954   -0.537589    0.325178
O      -2.444824    0.044640    0.103890
C      -1.237400   -2.040373    0.255425
C      -2.368174   -2.804435    0.479637
N      -1.997247   -4.098043    0.329316
N      -0.695906   -4.245409    0.021137
C      -0.232639   -2.999185   -0.023991
H       0.742594    1.965596   -1.226761
H      -0.950329    2.045284   -0.699439
H       0.340179    1.871596    0.493338
H      -0.346521   -0.242123   -1.648076
H       0.869561   -0.415116   -0.394362
H      -0.909406   -0.228909    1.350098
H      -2.736371   -0.244761   -0.768939
H      -3.376090   -2.517177    0.731016
H      -2.573705   -4.918085    0.412142
H       0.808887   -2.831599   -0.255463
