16

O      -0.007197    1.419936    0.069607
C      -0.066580    0.033745    0.007096
C      -1.354199   -0.733586    0.010932
C      -2.618387    0.048776   -0.341880
C      -2.373197    0.499686   -1.777380
C      -1.211166    0.019333   -2.262354
C      -0.458929   -0.746349   -1.247005
C      -3.286187    1.326474   -2.484141
N      -4.053829    1.997901   -3.034600
H      -0.484994    1.788793   -0.683072
H       0.752157   -0.397683    0.574036
H      -1.443138   -1.610432    0.641207
H      -3.522230   -0.565558   -0.273891
H      -2.761571    0.907363    0.325473
H      -0.849471    0.193542   -3.268743
H       0.145936   -1.593681   -1.548374
