21

C       0.728526    0.492014    0.028683
O       0.125373   -0.778389   -0.062484
C      -1.268196   -0.745151    0.156307
C      -1.824745   -2.158952    0.075407
O      -1.478989   -2.982152    1.171033
C      -0.203960   -3.567136    1.133203
C       0.957654   -2.890235    1.896569
O       1.180895   -4.088931    2.673151
C      -0.020868   -4.697492    2.160310
H       1.797112    0.361534   -0.157101
H       0.318690    1.188649   -0.719280
H       0.591058    0.938281    1.025634
H      -1.498934   -0.314127    1.144158
H      -1.764189   -0.119384   -0.606643
H      -2.918653   -2.099885    0.072829
H      -1.502917   -2.617567   -0.872203
H       0.061596   -3.847760    0.106658
H       1.839588   -2.600600    1.317759
H       0.627522   -2.048190    2.517455
H      -0.830690   -4.720216    2.901654
H       0.155147   -5.708797    1.776844
