21

C      -0.078536    1.548593    0.074122
C       0.090845    0.035927   -0.009727
O      -1.176978   -0.628752   -0.089067
C       1.016355   -0.444666   -1.149632
C       1.392150   -1.886098   -0.751254
C       1.529153   -1.837845    0.778906
C       2.753708   -1.076847    1.327185
O       1.956800    0.091742    1.626373
C       0.739654   -0.583085    1.238477
H       0.875705    2.027097    0.307356
H      -0.445780    1.953906   -0.876343
H      -0.799865    1.805049    0.855674
H      -1.609918   -0.338028   -0.898595
H       0.526577   -0.380138   -2.127105
H       1.904871    0.194819   -1.189097
H       0.578147   -2.565303   -1.020236
H       2.301189   -2.243523   -1.245493
H       1.311678   -2.787370    1.267641
H       3.198434   -1.501910    2.235714
H       3.554340   -0.857860    0.608816
H       0.028943   -0.669853    2.066349
