14

O      -0.181388    1.245813    1.300457
C       0.043794    1.324109    0.123204
C       1.429083    1.586653   -0.457290
C       1.357443    2.643622   -1.560304
O       0.612501    2.513562   -2.497087
C       2.267295    3.861570   -1.357776
C       2.193577    4.858973   -2.409519
C       2.136397    5.685244   -3.278199
H      -0.749026    1.211403   -0.644258
H       2.123034    1.834410    0.348276
H       1.755988    0.654196   -0.936725
H       2.011356    4.297422   -0.380657
H       3.295027    3.489287   -1.238245
H       2.081059    6.413567   -4.049054
