17

O       0.126312    1.552552   -0.257869
C      -0.041734    0.185116   -0.004793
C       0.412246   -0.165376    1.453987
O      -0.439218   -1.182591    1.947195
C      -1.652148   -1.120837    1.236299
C      -2.362371    0.198527    1.116394
C      -1.488140   -0.312470   -0.016484
C       0.766115   -0.620354   -1.005572
O       1.410843   -0.095066   -1.880978
H       0.678367    1.607400   -1.054316
H       1.444518   -0.523466    1.520513
H       0.334202    0.762861    2.033797
H      -2.201250   -2.052609    1.293839
H      -3.433934    0.170417    0.952113
H      -2.020125    1.048341    1.695726
H      -1.938874   -0.594023   -0.961116
H       0.732919   -1.721253   -0.880395
