17

C      -0.010012    1.585621    0.015861
C       0.069197    0.059520    0.049210
C       0.676345   -0.517296   -1.235968
C       0.966246   -2.011499   -1.044771
O       1.760148   -2.240930    0.123126
C       1.559046   -1.378729    1.167102
N       0.827617   -0.355922    1.233373
C      -0.274861   -2.805117   -0.962208
N      -1.253885   -3.416627   -0.919120
H       0.988735    2.021901   -0.089030
H      -0.627838    1.927229   -0.820656
H      -0.443146    1.956303    0.947867
H      -0.950161   -0.334080    0.165189
H       0.018111   -0.375297   -2.097533
H       1.628247   -0.020220   -1.453132
H       1.555588   -2.403152   -1.879078
H       2.164196   -1.702770    2.010927
