20

C       0.027616    1.483919   -0.066778
C      -0.073401   -0.019901    0.050924
C      -0.202974   -0.690778    1.370068
N       1.084453   -0.716517    0.656269
C       1.473860   -1.990511    0.012867
C       0.646054   -2.291164   -1.235043
C       0.516266   -1.050623   -2.143915
C      -0.638926   -0.740653   -1.164690
O      -0.764339   -2.159741   -0.877860
H       0.572620    1.895248    0.785833
H       0.558234    1.780197   -0.978963
H      -0.968971    1.939469   -0.095782
H      -0.206414   -0.092940    2.278740
H      -0.780627   -1.609131    1.406905
H       2.534709   -1.920813   -0.261689
H       1.374333   -2.809810    0.733797
H       0.880279   -3.260871   -1.682886
H       1.354651   -0.353037   -2.197766
H       0.159535   -1.309173   -3.141498
H      -1.569450   -0.302563   -1.536427
