19

C       0.098274    1.527716   -0.065108
C       0.053071    0.074262    0.003024
C       0.012220   -1.129449    0.051077
C       0.005554   -2.564728    0.097445
C      -0.487540   -3.313427    1.311707
C      -0.941725   -2.600550    2.566091
C      -1.317288   -3.360087    0.033590
C      -2.611864   -2.649771   -0.084070
O      -3.569876   -3.106871   -0.661034
H       0.753160    1.863208   -0.876732
H      -0.896629    1.948213   -0.248854
H       0.476335    1.962118    0.866982
H       0.815901   -3.034162   -0.453584
H       0.038604   -4.245162    1.500857
H      -1.330947   -1.602957    2.353395
H      -1.718108   -3.172366    3.084240
H      -0.097396   -2.481474    3.252837
H      -1.290450   -4.285685   -0.531398
H      -2.653507   -1.647495    0.390138
