17

C       0.833985   -1.723995    0.069370
C      -0.070513   -0.766366   -0.708709
C      -1.494216   -0.657522   -0.187307
C      -2.400701    0.305873   -0.958340
C      -1.859434    1.663058   -1.039347
N      -1.423809    2.730849   -1.109127
C      -2.157186   -1.739744    0.555208
O      -1.654078   -0.581021    1.230045
H       1.868478   -1.624525   -0.269445
H       0.800802   -1.499234    1.138548
H       0.542224   -2.769320   -0.072155
H       0.362552    0.241142   -0.690493
H      -0.114699   -1.057077   -1.766449
H      -2.556453   -0.065546   -1.978278
H      -3.379062    0.348958   -0.470611
H      -3.242798   -1.828910    0.527168
H      -1.624888   -2.664994    0.760454
