19

C      -0.095972    1.480153   -0.017557
C       0.033226   -0.021059    0.000469
O      -1.152570   -0.587621   -0.484362
C      -1.353029   -1.994400   -0.385751
C      -0.805540   -2.601248    0.874441
C       0.136749   -1.990067    1.599420
C       0.730838   -0.710373    1.166052
C       1.375290   -0.659513   -0.237892
O       1.512690   -1.817022   -0.999456
H       0.826685    1.953935    0.328413
H      -0.305186    1.829686   -1.033571
H      -0.916004    1.802124    0.631909
H      -2.440496   -2.133062   -0.422237
H      -0.933741   -2.495091   -1.271203
H      -1.227236   -3.552135    1.186431
H       0.498088   -2.433489    2.522882
H       1.189487   -0.099399    1.936742
H       2.226240    0.010693   -0.348104
H       1.372322   -2.576653   -0.419125
