19

C      -0.327035    1.378582   -0.149766
C       0.229649   -0.031173    0.083087
C       0.754644   -0.660732   -1.194665
C       0.933841   -2.121589   -1.470120
C      -0.191306   -2.949126   -0.837034
C      -1.187786   -2.150813   -1.725474
O      -2.338706   -2.317067   -2.013700
C      -0.094352   -1.285865   -2.298259
O      -0.018237   -0.876428   -3.609490
H       0.434246    2.041509   -0.576033
H      -1.177372    1.356729   -0.839925
H      -0.670907    1.827169    0.786787
H       1.047366    0.011686    0.814090
H      -0.548344   -0.656586    0.531406
H       1.541118   -0.070141   -1.666898
H       1.863841   -2.529708   -1.843241
H      -0.187525   -3.998765   -1.145481
H      -0.317057   -2.896779    0.246908
H      -0.279678    0.048787   -3.664381
