21

C       0.273796    1.476795   -0.289495
C      -0.123833    0.023154   -0.000097
C       0.472583   -0.498100    1.281443
O       1.907207   -0.755766    1.244292
C       1.021427   -1.850440    1.493558
C       0.867960   -2.207640    2.965167
C       0.258298   -0.951672    3.572682
C       0.024288   -0.831217    5.044218
C       0.022364   -0.029588    2.631750
H       1.362077    1.569234   -0.347906
H      -0.150907    1.816345   -1.238776
H      -0.079414    2.155088    0.494204
H      -1.216313   -0.064626    0.056273
H       0.207031   -0.617794   -0.824369
H       1.009134   -2.624083    0.729151
H       0.213939   -3.079770    3.100036
H       1.831662   -2.459530    3.425398
H       0.968128   -0.897127    5.600506
H      -0.452566    0.118837    5.299789
H      -0.611485   -1.645880    5.414015
H      -0.409464    0.948385    2.810708
