17

C      -0.042312    1.502958   -0.277782
C      -0.034440    0.025954    0.010059
O       1.220269   -0.659128   -0.047161
C       0.560321   -0.585015    1.222308
C       1.251682    0.171395    2.285718
C       0.924336    0.235568    3.627752
N       1.850788    1.034576    4.209577
N       2.774788    1.494516    3.346546
C       2.414838    0.972778    2.178076
H       0.718100    2.031006    0.300952
H       0.143314    1.682905   -1.341879
H      -1.022078    1.927427   -0.032810
H      -0.849132   -0.534076   -0.455514
H       0.123017   -1.531425    1.546900
H       0.124726   -0.215556    4.194133
H       1.916503    1.294941    5.178901
H       3.001422    1.160543    1.292170
