19

O       0.256077    1.216184    0.482745
C       0.025805   -0.100095    0.071442
C      -1.444705   -0.516380   -0.073157
C      -1.350515   -1.759918   -0.961328
C      -1.515826   -3.133135   -0.353070
C      -2.556729   -2.585485   -1.301121
C      -0.233791   -1.491196   -1.972343
C       0.581391   -0.374031   -1.326926
O       1.460170    0.286710   -1.823854
H       0.969598    1.545154   -0.085055
H       0.521750   -0.822307    0.748753
H      -1.934770   -0.711339    0.883522
H      -1.991623    0.291216   -0.576286
H      -0.873885   -3.932689   -0.708665
H      -1.769393   -3.200225    0.699918
H      -3.514176   -2.282012   -0.890152
H      -2.617233   -3.015998   -2.295491
H       0.392329   -2.361055   -2.194630
H      -0.611857   -1.118248   -2.932499
