19

C       0.027354    1.532393   -0.000243
C       0.013108    0.026594   -0.026744
C      -0.064862   -0.694181   -1.216562
C      -0.076836   -2.086787   -1.221551
C      -0.009752   -2.775407   -0.016312
C       0.069471   -2.094226    1.199801
C       0.142714   -2.832951    2.514038
C       0.079704   -0.692940    1.174700
O       0.155357    0.048064    2.323273
H       0.937973    1.914973    0.473769
H      -0.030993    1.939855   -1.012686
H      -0.812347    1.929639    0.580586
H      -0.116994   -0.148838   -2.154372
H      -0.138017   -2.629418   -2.158341
H      -0.018366   -3.861410   -0.008241
H       1.064593   -2.606030    3.067362
H      -0.702048   -2.591444    3.174017
H       0.124099   -3.913253    2.353355
H       0.196112   -0.543283    3.080568
