21

C      -0.085034    1.561380    0.017447
C      -0.004720    0.028069    0.010095
C      -1.427503   -0.565156    0.023993
C       0.825892   -0.499601   -1.225868
C       1.492486   -1.768852   -0.682280
O       2.954943   -1.955071   -0.693746
C       2.971976   -2.096677    0.761246
C       1.583400   -1.510958    0.786184
C       0.847501   -0.483357    1.187286
H       0.912001    2.010917    0.065939
H      -0.576092    1.927453   -0.891174
H      -0.662885    1.924753    0.874809
H      -2.015475   -0.198659   -0.825190
H      -1.403657   -1.658208   -0.023769
H      -1.956720   -0.285388    0.941394
H       0.207507   -0.655892   -2.115070
H       1.607407    0.226620   -1.471535
H       1.014400   -2.698692   -1.016887
H       3.060167   -3.151895    1.052503
H       3.770793   -1.516687    1.235250
H       0.884287    0.030049    2.141956
