14

N       0.039145    1.514946   -0.014798
C       0.017515    0.054793   -0.002997
C      -1.458819   -0.451642    0.124853
C      -2.120023    0.011532    1.332216
C      -2.675596    0.373936    2.332386
C       0.591660   -0.539363   -1.240776
N       1.005000   -0.939655   -2.242857
C       0.814180   -0.418294    1.148094
N       1.445543   -0.794754    2.037603
H       0.991912    1.856802   -0.095288
H      -0.480920    1.857656   -0.817486
H      -1.991415   -0.107539   -0.769963
H      -1.448921   -1.545663    0.082438
H      -3.160914    0.696628    3.220544
