17

C      -0.036745    1.455079    0.128401
N      -0.113784    0.003130    0.146195
C      -1.267257   -0.674446   -0.050576
O      -2.346617   -0.149871   -0.282058
C      -1.180648   -2.213238   -0.006138
O      -2.464054   -2.730205    0.160009
C      -0.542641   -2.727430   -1.327940
C      -0.391953   -4.179028   -1.334717
N      -0.247864   -5.325197   -1.331480
H       0.734600    1.794419   -0.569578
H      -1.007078    1.831773   -0.194820
H       0.185917    1.853255    1.123974
H       0.706027   -0.517226    0.414959
H      -0.548341   -2.530361    0.834643
H      -3.058812   -1.988699   -0.049862
H      -1.185973   -2.426141   -2.161629
H       0.440889   -2.271276   -1.488295
