17

O      -0.051874   -0.067061    0.103058
C      -0.053738    1.132724    0.043910
C      -1.120224    2.255477    0.079145
C       0.077473    3.249816   -0.042722
N       0.949568    2.064083   -0.077818
C       0.132352    4.131256   -1.260008
C      -0.378701    5.548000   -1.181369
C       1.100065    5.289676   -1.312742
H      -1.803223    2.252602   -0.772503
H      -1.690385    2.307184    1.008049
H       0.227436    3.853881    0.861660
H       1.952438    1.964465   -0.139343
H      -0.038376    3.602161   -2.194153
H      -0.913298    5.946693   -2.035795
H      -0.748146    5.900898   -0.223899
H       1.723382    5.470790   -0.442641
H       1.582604    5.512085   -2.257669
