17

C       0.012070    1.520703    0.243784
C      -0.023100    0.040180   -0.154081
C      -1.399364   -0.556908   -0.067185
C      -2.044064   -1.073231    1.200776
C      -1.783604   -1.998921    0.035096
O      -2.856107   -2.184834   -0.862547
C      -3.155392   -0.995124   -1.462726
O      -4.027915   -0.833454   -2.251419
O      -2.320095   -0.018192   -1.008466
H       1.026538    1.919663    0.158375
H      -0.641806    2.111264   -0.403534
H      -0.321562    1.659326    1.277063
H       0.347247   -0.084685   -1.178453
H       0.639716   -0.543035    0.495612
H      -1.396683   -1.188178    2.063438
H      -3.070192   -0.797425    1.418950
H      -1.105882   -2.841608    0.076330
