17

C       0.100330    1.488908    0.074796
C       0.040392    0.036428    0.025002
C      -0.004313   -1.166382   -0.007827
C      -0.028033   -2.607654   -0.069356
O      -0.514454   -3.293316    1.112805
C      -1.323971   -3.353644   -0.053384
C      -2.662693   -2.669237   -0.012403
C       1.115367   -3.220862   -0.707509
C       2.058586   -3.729910   -1.250283
H       1.104946    1.849629   -0.170609
H      -0.600814    1.941852   -0.634538
H      -0.151246    1.857958    1.075005
H      -1.302651   -4.324975   -0.550738
H      -2.575546   -1.665158    0.406545
H      -3.082627   -2.598437   -1.021083
H      -3.358046   -3.249130    0.603381
H       2.897109   -4.177667   -1.723867
