21

C      -0.007436    1.594573    0.124674
C      -0.035796    0.073841   -0.063255
C      -1.450040   -0.541059   -0.079721
C      -2.191961   -0.220841   -1.381865
O      -3.578583   -0.541034   -1.345076
C      -1.349993   -2.068920    0.196030
O      -0.735046   -2.299082    1.436982
C      -2.695142   -2.783692    0.167607
O      -3.139713   -3.290428    1.173362
H       1.023926    1.958550    0.160814
H      -0.511576    2.129745   -0.686481
H      -0.491759    1.882158    1.064389
H       0.481747   -0.197501   -0.994209
H       0.521628   -0.396500    0.750738
H      -2.020786   -0.111837    0.757816
H      -2.048956    0.836180   -1.642115
H      -1.775255   -0.809746   -2.208132
H      -3.999271    0.033322   -0.696862
H      -0.740842   -2.512598   -0.613103
H      -1.405501   -2.759712    1.968515
H      -3.226641   -2.835151   -0.794437
