19

C      -0.049119    1.459250    0.141951
C       1.283893    0.764520    0.042038
C       2.025780    0.396056    1.339276
C       1.054584   -0.545195    2.004340
C      -0.013643   -0.806173    1.251679
C      -0.941992   -1.727913    1.976109
O      -0.273075   -2.002890    3.214271
C       0.944955   -1.251685    3.317535
C      -0.011606   -0.048643   -0.025008
H      -0.370462    1.851721    1.101764
H      -0.357077    2.051285   -0.714094
H       1.869065    0.935291   -0.853868
H       2.989254   -0.087300    1.128044
H       2.251615    1.279693    1.950213
H      -1.927320   -1.274996    2.173598
H      -1.122893   -2.674477    1.443866
H       1.780087   -1.942280    3.513783
H       0.887709   -0.563606    4.177192
H      -0.373059   -0.490327   -0.947105
