13

O       0.041551    1.354317    0.282097
C      -0.015483    0.024665    0.027901
C      -1.182019   -0.617726   -0.136723
O      -1.198996   -1.968764   -0.393525
C      -0.043356   -2.691827   -0.488143
N      -0.015657   -3.937683   -0.723292
C       1.185767   -1.893704   -0.291718
O       2.322700   -2.582426   -0.380570
N       1.197079   -0.630172   -0.051748
H       0.977493    1.575973    0.358568
H      -2.166518   -0.180625   -0.089992
H      -0.964361   -4.301885   -0.827159
H       3.043069   -1.951388   -0.234486
