15

C      -0.046299    1.531990    0.083262
C       0.001997    0.045773   -0.025797
C      -0.023049   -0.784248   -1.134416
N      -0.160575   -0.413406   -2.474174
C       0.037016   -2.099013   -0.596329
N       0.092163   -2.089815    0.745196
N       0.080533   -0.795027    1.049203
C       0.039740   -3.298716   -1.352700
N       0.045810   -4.226844   -2.046198
H       0.950402    1.989803    0.056482
H      -0.624353    1.945262   -0.748597
H      -0.529719    1.848867    1.012837
H       0.472498    0.321225   -2.762232
H      -0.073890   -1.201306   -3.103994
H       0.115304   -0.529321    2.020128
