15

O       0.065277   -0.018372   -0.194405
C       0.100766    1.169277   -0.280771
O       1.067581    1.908804    0.326470
C       0.979192    3.292381    0.192242
C       1.085968    4.044386   -1.103504
C       2.115306    4.266654   -0.011847
C       1.534159    5.132864    1.153426
O       0.178180    5.500017    0.846707
C       0.441092    4.192031    1.361820
H      -0.612790    1.792424   -0.848827
H       1.460588    3.448400   -1.929908
H       0.371556    4.815409   -1.362334
H       3.166473    4.054461   -0.147282
H       2.084728    5.764028    1.838930
H      -0.086932    3.858214    2.246943
