17

C       0.147374    1.497590    0.071276
N      -0.234292    0.121839    0.402841
C       0.767924   -0.573105    1.172299
C       0.503804   -2.094569    1.455386
C       1.970444   -2.436670    1.021872
C       2.047685   -1.021400    0.429741
O       2.760630   -0.496751   -0.372269
C       0.091406   -2.459179    2.797554
N      -0.230408   -2.734794    3.873452
H       1.044428    1.480213   -0.551347
H      -0.660005    1.962622   -0.500010
H       0.356142    2.124922    0.954784
H      -1.104403    0.128839    0.927293
H       1.071434   -0.068326    2.110882
H      -0.215569   -2.473790    0.725307
H       2.646822   -2.565674    1.871581
H       2.103916   -3.268511    0.328785
