17

C      -0.026022    1.512456    0.035811
C      -0.000913    0.009572   -0.032805
N      -0.093929   -0.601199   -1.165734
C      -0.069131   -2.009981   -1.215946
O      -0.155951   -2.600390   -2.277673
C       0.065708   -2.737508    0.064320
C       0.092979   -4.233724    0.020319
C       0.157092   -2.023081    1.202871
N       0.124630   -0.645059    1.164196
H       0.896065    1.902111    0.481947
H      -0.127789    1.907310   -0.973662
H      -0.865989    1.865151    0.645059
H       0.919999   -4.581388   -0.607332
H       0.194978   -4.669805    1.018292
H      -0.820428   -4.617833   -0.445419
H       0.258351   -2.465962    2.187439
H       0.193383   -0.116855    2.018725
