19

C      -0.172956    1.560942   -0.092453
C       0.031868    0.034878   -0.058391
C      -1.300863   -0.702221    0.170960
C       0.743400   -0.462416   -1.283144
N       1.926554   -1.056113   -1.296505
C       2.185941   -1.337821   -2.607972
O       3.330786   -1.953992   -2.980136
C       1.167009   -0.922224   -3.422202
N       0.247613   -0.359626   -2.544714
H       0.777845    2.084208   -0.226089
H      -0.837185    1.857225   -0.912954
H      -0.629189    1.908744    0.839921
H       0.704793   -0.203951    0.771098
H      -2.012874   -0.502454   -0.638575
H      -1.149790   -1.783888    0.224359
H      -1.766623   -0.373148    1.105424
H       3.825107   -2.107076   -2.165836
H       1.010474   -0.966916   -4.484812
H      -0.632223    0.050889   -2.806095
