16

O       0.120168    1.336795    0.273698
C       0.082574   -0.011844    0.031998
C       0.064810   -0.710582   -1.151688
N       0.027474   -2.048585   -0.821536
C       0.020423   -2.211196    0.540939
C       0.054795   -0.950560    1.101800
N       0.064270   -0.556800    2.441886
C       0.039781   -1.371844    3.533764
N       0.003526   -2.649308    3.458078
H       0.136854    1.809078   -0.563250
H       0.075699   -0.374408   -2.175174
H       0.004711   -2.801002   -1.484218
H      -0.007137   -3.171574    1.019732
H       0.092560    0.437044    2.596569
H       0.055132   -0.793754    4.465734
H      -0.008977   -3.049047    4.393019
