21

C      -0.246060    1.466760    0.497263
C      -0.062942   -0.019673    0.292824
C       1.113384   -0.567206   -0.481622
C       1.003421   -0.826407    0.999454
C       1.955321   -0.188093    2.019615
C       1.602257   -0.883936    3.320484
O       0.192441   -0.926943    3.583183
C       0.820771   -2.091943    3.029713
C       0.648954   -2.222911    1.529083
H       0.709784    1.999570    0.512928
H      -0.840486    1.897049   -0.316145
H      -0.762902    1.676538    1.440353
H      -0.999434   -0.555373    0.153090
H       0.958011   -1.397161   -1.164308
H       1.866952    0.141412   -0.814170
H       3.005688   -0.399290    1.777145
H       1.848897    0.898026    2.087803
H       2.237692   -0.785291    4.197194
H       0.825251   -2.969303    3.671761
H      -0.359536   -2.537299    1.240889
H       1.349316   -2.985239    1.160171
