20

C       0.031707    1.502510    0.009721
C       0.025342    0.046146    0.001844
C       0.032083   -1.158089   -0.004625
C       0.003919   -2.616944   -0.012223
C      -1.424874   -3.197365   -0.001517
C      -1.432936   -4.727607   -0.009608
C      -2.838423   -5.313357    0.000769
O      -2.722843   -6.728793   -0.007901
H       1.054213    1.896556    0.001795
H      -0.484743    1.909868   -0.866740
H      -0.467336    1.900206    0.900586
H       0.538428   -2.992356   -0.895407
H       0.555400   -3.001810    0.856343
H      -1.952357   -2.820981    0.883251
H      -1.969342   -2.811609   -0.871847
H      -0.907344   -5.105062   -0.895693
H      -0.890452   -5.114440    0.862135
H      -3.380679   -4.963244    0.894719
H      -3.397715   -4.953771   -0.878810
H      -3.608634   -7.102673   -0.001258
