19

O      -0.083246    1.477996    0.030092
C       0.044957    0.065740    0.050483
C       0.619193   -0.512845    1.352697
C       0.111225   -1.960105    1.351278
O       0.109433   -2.599821    2.612277
C      -1.355162   -1.823218    0.860310
C      -1.359742   -0.565754   -0.066144
C      -1.878954   -3.030849    0.240781
C      -2.301140   -4.022430   -0.292335
H       0.800243    1.859659    0.031927
H       0.665566   -0.266841   -0.796413
H       1.710084   -0.437816    1.420413
H       0.182657    0.018375    2.206642
H       0.676247   -2.554177    0.617134
H       1.018603   -2.806700    2.848605
H      -1.942818   -1.610632    1.761472
H      -2.095469    0.165424    0.277181
H      -1.607068   -0.823873   -1.096737
H      -2.680623   -4.901006   -0.751762
