19

C      -0.648930    1.307615   -0.038126
C       0.128135   -0.000563   -0.067917
C       1.476214   -0.049285   -0.859018
C       2.203302   -0.580647    0.396958
O       2.815511    0.439631    1.205487
C       1.635518    0.567150    2.036392
C       0.863559   -0.483208    1.218430
C       3.015807   -1.837109    0.310924
O       2.838998   -2.696599   -0.516735
H      -0.016962    2.151541    0.257201
H      -1.051262    1.534879   -1.031088
H      -1.492688    1.257147    0.659115
H      -0.532613   -0.801848   -0.412281
H       1.489918   -0.756051   -1.690661
H       1.867908    0.917043   -1.185207
H       1.846811    0.265904    3.069566
H       1.239073    1.588615    2.040510
H       0.428252   -1.317358    1.767577
H       3.791298   -1.925049    1.104066
