17

N      -0.035662    1.290713    0.089933
C      -0.211263   -0.032115   -0.290387
O       0.361599   -0.542052   -1.230309
N      -1.090931   -0.732750    0.527069
C      -1.167900   -2.155940    0.382272
C      -2.368293   -2.845165    0.928333
C      -2.175736   -2.771315   -0.583890
C      -3.098413   -1.915924   -1.364963
O      -3.527929   -2.202444   -2.455017
H       0.431490    1.837405   -0.617761
H      -0.815669    1.761714    0.523676
H      -1.205870   -0.383648    1.467443
H      -0.216879   -2.681228    0.419312
H      -2.252389   -3.811570    1.403700
H      -3.154148   -2.223402    1.346328
H      -1.862064   -3.671844   -1.098619
H      -3.389771   -0.968607   -0.859481
