19

C       0.045864    1.487458    0.417327
C       1.149688    2.306230   -0.209288
C       1.900468    2.095732   -1.294247
C       1.920618    0.961830   -2.291905
C       1.286612   -0.362947   -1.837906
O      -0.050983   -0.145655   -1.387105
C      -0.007994    0.000023    0.032941
C       1.237945   -0.755478    0.439619
C       1.983088   -0.964388   -0.637188
H       0.117569    1.566329    1.511133
H      -0.919260    1.944892    0.154129
H       1.322508    3.248151    0.310135
H       2.604960    2.888589   -1.543151
H       1.405779    1.293015   -3.205820
H       2.959231    0.769609   -2.595397
H       1.242931   -1.049096   -2.693338
H      -0.926264   -0.440916    0.441383
H       1.471976   -1.009958    1.465402
H       2.960416   -1.427262   -0.685546
