18

C      -0.341774    1.409237   -0.405203
N      -0.149970   -0.023665   -0.268362
C      -1.240917   -0.814044    0.065294
N      -1.065029   -1.938269    0.750590
N      -2.323014   -2.477495    0.824959
C      -3.249349   -1.704744    0.225300
O      -4.530218   -2.111584    0.235520
C      -5.443499   -1.252863   -0.432830
C      -2.602256   -0.598071   -0.292147
H       0.620305    1.875114   -0.632614
H      -1.011301    1.619832   -1.245708
H      -0.761440    1.893625    0.491168
H       0.659938   -0.279139    0.280017
H      -2.475407   -3.342181    1.311991
H      -6.426177   -1.716652   -0.340252
H      -5.459717   -0.259502    0.031435
H      -5.181896   -1.150789   -1.492816
H      -3.032344    0.218335   -0.844282
