18

O      -0.059233    1.389508    0.093337
C       0.014147   -0.008395   -0.015885
C      -0.489855   -0.623745   -1.294752
C      -1.316268   -0.702877   -0.019282
C      -1.456444   -2.029794    0.725453
O      -0.407420   -2.293366    1.643100
C       0.869662   -2.127506    1.061801
C       1.145168   -0.647712    0.768066
H       0.698444    1.760415   -0.373214
H      -0.826714    0.061127   -2.064697
H      -0.032781   -1.538314   -1.662740
H      -2.177701   -0.045567    0.022428
H      -2.372495   -2.029034    1.322143
H      -1.530267   -2.860139    0.002688
H       1.594293   -2.513628    1.784215
H       0.959848   -2.735954    0.145201
H       2.103839   -0.539061    0.242662
H       1.225721   -0.111645    1.719937
