21

C      -0.139028    1.328787    0.186748
O      -0.044509   -0.073444    0.092463
C      -1.301296   -0.726319    0.077136
C      -1.038705   -2.218214   -0.139897
O      -0.317547   -2.378717   -1.352640
C      -0.305847   -2.835112    1.094582
C      -1.395915   -3.570924    1.829749
C      -2.514720   -3.657485    1.111843
C      -2.378580   -2.992719   -0.234083
H       0.878424    1.727262    0.181355
H      -0.695311    1.756925   -0.661373
H      -0.638059    1.639341    1.117335
H      -1.842940   -0.559181    1.021805
H      -1.917560   -0.338910   -0.749849
H       0.371952   -1.702799   -1.340870
H       0.473027   -3.522268    0.740122
H       0.196718   -2.071934    1.698208
H      -1.251783   -3.997821    2.816533
H      -3.421482   -4.165863    1.420660
H      -3.222165   -2.335062   -0.479496
H      -2.309409   -3.724761   -1.048522
