16

O      -0.016495   -0.040561   -0.254592
C      -0.014396    1.160017   -0.049858
N      -1.167395    1.873622    0.190142
C      -1.215958    3.322962    0.072212
C      -0.025912    3.945667    0.830921
C       1.253368    3.228800    0.435824
C       1.236042    1.962394    0.018578
C       0.046887    5.384921    0.597949
C       0.098920    6.567303    0.391632
H      -2.014394    1.352326    0.015238
H      -1.172183    3.652332   -0.976382
H      -2.156409    3.683690    0.495217
H      -0.182719    3.775439    1.908020
H       2.183180    3.780329    0.535042
H       2.139937    1.423090   -0.239488
H       0.148093    7.614003    0.217821
