13

N      -0.129713   -0.939109   -0.903050
C      -0.068214    0.066319   -0.337027
C       0.037757    1.368969    0.326837
C       1.410914    1.963450    0.218985
C       2.171238    2.677391    1.108356
N       3.358366    3.066218    0.534008
C       3.323242    2.589812   -0.688301
N       2.162039    1.919638   -0.937116
H      -0.725818    2.027285   -0.110632
H      -0.221965    1.254186    1.383876
H       1.926163    2.933660    2.128409
H       4.098846    2.690648   -1.432579
H       1.923596    1.415938   -1.776696
