21

C      -0.018966    1.613353    0.059713
C       0.091412    0.093618    0.030490
C       0.795301   -0.624916   -1.122030
C       2.311422   -0.763015   -0.753802
C       3.349910   -1.005758   -1.807596
C       2.491470   -0.102032    0.613545
C       1.086746   -0.658123    0.970964
C       1.293951   -1.719127   -0.208744
O       1.277733   -3.088504   -0.277025
H       0.942020    2.101236   -0.123900
H      -0.714276    1.962703   -0.711925
H      -0.397249    1.962790    1.027381
H      -0.905518   -0.345587    0.163149
H       0.490596   -0.705758   -2.159059
H       3.667389   -0.070088   -2.282542
H       4.240027   -1.483117   -1.382211
H       2.967032   -1.665574   -2.593048
H       3.275477   -0.609395    1.184420
H       2.646663    0.980901    0.672892
H       0.817948   -0.873021    2.003906
H       0.361277   -3.386512   -0.300323
