14

C      -0.015716    1.484592    0.059076
C       1.307488    0.767147    0.010032
C       2.003757    0.435707    1.331452
C       1.011464   -0.466843    2.037733
C      -0.048684   -0.742560    1.273989
C       0.011208   -0.029791   -0.035192
H      -0.343337    1.924384    0.995995
H      -0.305571    2.037943   -0.828482
H       1.913155    0.888173   -0.880200
H       2.960197   -0.078333    1.163851
H       2.237813    1.333650    1.918416
H       1.161347   -0.815572    3.053399
H      -0.883124   -1.372211    1.561904
H      -0.351344   -0.506231   -0.939474
