23

C      -0.127575    1.515350    0.056427
C       0.119289    0.006476   -0.047025
C       0.716330   -0.599930    1.225565
C      -0.108426   -0.517062    2.536236
C      -1.400407   -1.305492    2.192823
C      -0.443318   -2.502778    2.139022
C       0.431669   -1.839847    3.250435
C       1.699153   -2.341434    2.544251
C       0.843489   -2.144450    1.265468
H       0.794432    2.049534    0.312796
H      -0.496084    1.923777   -0.889770
H      -0.868223    1.747408    0.829013
H      -0.811638   -0.501651   -0.320780
H       0.815447   -0.191011   -0.872791
H       1.703282   -0.143314    1.375776
H      -0.145592    0.438501    3.059156
H      -2.061874   -1.390468    3.060954
H      -1.991915   -1.017331    1.320148
H      -0.758185   -3.545731    2.167724
H       0.232607   -1.953065    4.316108
H       2.639204   -1.785493    2.624759
H       1.874090   -3.396077    2.778932
H       1.071639   -2.661553    0.332714
