17

C       0.188473    1.633050   -0.189027
C       0.083687    0.134177    0.051430
O       0.583243   -0.582754   -1.096370
C       1.839246   -1.067357   -0.888976
O       2.455934   -1.636144   -1.740179
C       2.263460   -0.759146    0.542050
C       0.932747   -0.421227    1.238999
C       1.034108    0.454007    2.393838
C       1.127092    1.171720    3.353493
H       1.231236    1.952392   -0.279801
H      -0.331781    1.892686   -1.114323
H      -0.265541    2.182173    0.639260
H      -0.964384   -0.155312    0.161555
H       2.795828   -1.604870    0.977138
H       2.945699    0.096616    0.533349
H       0.467337   -1.363512    1.553042
H       1.208163    1.804328    4.202857
