19

C      -0.060398    1.554399   -0.061071
C       0.066412    0.049038   -0.037854
C       1.196936   -0.661849   -0.835660
C       1.130301   -1.780141    0.253657
C       0.599562   -0.680346    1.228528
C      -0.034979   -2.670385   -0.091441
O      -0.016883   -3.876627   -0.097489
C      -1.310732   -1.894255   -0.453956
O      -1.206498   -0.476173   -0.411009
H       0.886959    2.024182    0.217389
H      -0.341564    1.897461   -1.061338
H      -0.834042    1.882208    0.639855
H       0.990216   -0.928683   -1.875288
H       2.141241   -0.115736   -0.776220
H       2.018211   -2.359269    0.505417
H       1.427071   -0.137875    1.691601
H      -0.129129   -0.963336    1.992520
H      -1.613497   -2.206533   -1.461944
H      -2.103742   -2.221768    0.230943
