15

C       0.028291   -3.735651    0.009129
C       0.033169   -2.527382    0.010701
C       0.036417   -1.169629    0.013313
C       0.056917    0.042821    0.006314
C       0.052148    1.456324    0.004185
C       0.261309    2.340228   -1.200294
C       1.173902    2.501954   -0.013287
C       0.405112    3.140529    1.134073
O      -0.675575    2.175248    1.013834
H       0.026063   -4.797320    0.007143
H       0.708922    1.854311   -2.060413
H      -0.499665    3.083784   -1.421225
H       2.242881    2.349775   -0.062229
H       0.901705    3.038618    2.104861
H       0.056837    4.170564    0.997614
