20

C      -0.096674    1.569098   -0.064562
C      -0.150037    0.043468   -0.178249
C       0.955102   -0.521265   -1.081590
C       0.906598   -2.031955   -1.178605
C      -0.000786   -2.728157   -2.161343
C       1.505745   -2.740649   -2.376892
O       2.056720   -1.924513   -3.366578
C       2.216109   -3.983549   -2.158312
N       2.781251   -4.981411   -2.005194
H       0.859875    1.901958    0.353122
H      -0.210671    2.043233   -1.045638
H      -0.892892    1.947922    0.583414
H      -0.066606   -0.403037    0.821174
H      -1.128183   -0.265794   -0.567996
H       0.878123   -0.088948   -2.084128
H       1.935853   -0.218379   -0.692914
H       1.054482   -2.552528   -0.236316
H      -0.491933   -3.651376   -1.876990
H      -0.548713   -2.104831   -2.860584
H       1.926298   -2.353133   -4.220314
