14

C       0.000433    1.470578   -0.024375
C      -0.002226   -0.043326    0.010375
O       0.678208   -0.499006   -1.185745
C       0.795295   -1.793627   -1.367205
N       1.374504   -2.370647   -2.381482
C       1.205583   -3.689068   -2.056541
N       0.578780   -3.941185   -0.939728
O       0.291150   -2.636015   -0.457330
H       1.022865    1.856944   -0.037954
H      -0.522501    1.839638   -0.910469
H      -0.505727    1.857524    0.864440
H       0.526425   -0.434471    0.885301
H      -1.017669   -0.451778    0.013508
H       1.565481   -4.497488   -2.677445
