17

O       0.287706    1.415063   -0.220195
C       0.081693    0.063948    0.004218
C       0.184825   -0.602863    1.407441
C      -0.454597    0.231702    2.527827
C      -1.877939    0.619954    2.153865
O      -2.051032    1.587304    1.100117
C      -2.351708    0.197935    0.827475
C      -1.324756   -0.608101    0.035390
O      -0.771450   -1.601466    0.946583
H      -0.436082    1.882957    0.224228
H       0.716086   -0.491828   -0.690327
H       1.132716   -1.051417    1.715053
H      -0.490846   -0.369497    3.442511
H       0.149287    1.121130    2.743725
H      -2.589966    0.746585    2.965966
H      -3.406669    0.004915    0.649861
H      -1.733467   -1.058201   -0.871542
