17

C      -0.070201    1.492329   -0.100826
C      -0.035110   -0.012000   -0.044733
C       0.603158   -0.895006   -1.209349
C      -0.187195   -1.995709   -0.528974
C       0.401757   -2.821278    0.368730
C       0.320933   -2.118220    1.697307
O       0.799485   -2.446891    2.755745
C      -0.272893   -0.766885    1.344469
C      -1.136190   -0.996538    0.127700
H       0.919582    1.919303    0.091857
H      -0.400273    1.837855   -1.086669
H      -0.761229    1.897682    0.644512
H       0.198549   -0.503957   -2.149029
H       1.686708   -1.024546   -1.279466
H       1.273497   -3.434157    0.161974
H      -0.587672   -0.103860    2.145186
H      -2.213946   -0.920842    0.071012
