20

C       0.215397    1.461552    0.216060
C      -0.034142   -0.016622   -0.115970
C       0.680861   -0.459045   -1.360077
C       0.452135   -0.073198   -2.811914
N       1.304090   -1.259291   -3.231645
C       2.676941   -0.827815   -2.743093
C       2.144979   -0.951841   -1.327053
O       2.815353   -0.943747   -0.122196
C       1.043673   -1.851438   -1.828982
H       1.279513    1.643834    0.393620
H      -0.105817    2.112985   -0.603882
H      -0.335051    1.760377    1.113254
H       0.296792   -0.639076    0.722864
H      -1.111041   -0.194622   -0.234293
H      -0.580261   -0.235054   -3.136846
H       0.806755    0.894895   -3.185129
H       3.409303   -1.602147   -2.994168
H       3.018236    0.141851   -3.123560
H       3.402960   -1.706966   -0.092586
H       0.691350   -2.850430   -1.612665
