19

C      -0.101776    1.481436    0.058361
C      -0.003408   -0.028629    0.040839
C       1.356994   -0.703929   -0.127977
C       0.639950   -0.752288    1.177276
O       1.151787   -0.083955    2.348530
C       0.879175   -1.249844    3.136103
C      -0.599905   -1.546758    3.160018
C       0.246418   -1.974378    1.977369
O       0.386698   -3.274833    1.541785
H       0.732765    1.919147    0.612800
H      -0.090541    1.890361   -0.957697
H      -1.026578    1.811156    0.543883
H      -0.843675   -0.539939   -0.425424
H       1.424387   -1.621871   -0.702509
H       2.228016   -0.058817   -0.184502
H       1.596083   -1.534289    3.895616
H      -0.875801   -2.367138    3.817080
H      -1.321940   -0.738516    3.081890
H      -0.487939   -3.621525    1.335326
