20

C      -0.091321    1.579448    0.017764
C      -0.005770    0.061264    0.076299
C       0.810297   -0.685994   -1.011216
C       1.308878   -1.671010    0.079137
O       2.621804   -2.134184    0.052084
C       0.876905   -0.635445    1.182746
C       2.030925    0.223054    1.651131
N       1.901107    0.766393    2.890324
O       3.020026    0.444790    0.958524
H       0.904196    2.028572   -0.049822
H      -0.660772    1.895121   -0.863063
H      -0.592091    1.992026    0.901026
H      -1.013527   -0.361331    0.146067
H       0.270306   -1.098476   -1.866913
H       1.640682   -0.071072   -1.368780
H       0.663103   -2.552524    0.139021
H       3.178502   -1.342778    0.126408
H       0.325313   -1.037488    2.037694
H       1.108535    0.581493    3.478604
H       2.643039    1.352390    3.237889
