21

C       0.135070    1.075326   -0.620495
O      -0.203990    0.221722    0.454126
C      -1.394520   -0.468060    0.246277
C      -1.375393   -1.741505   -0.568252
C      -1.548104   -1.786635    0.940877
C      -0.442864   -2.331552    1.821165
C      -0.449302   -3.870679    1.888346
C       0.719701   -4.401926    2.683243
O       0.638644   -5.137148    3.633289
H       1.076002    1.564580   -0.358602
H       0.265726    0.515825   -1.557831
H      -0.634029    1.845658   -0.782052
H      -2.272235    0.175737    0.164795
H      -2.217708   -1.977415   -1.209270
H      -0.408393   -2.045568   -0.957343
H      -2.552419   -2.008341    1.293524
H       0.523102   -1.976381    1.447854
H      -0.548458   -1.923825    2.834154
H      -1.375204   -4.255269    2.326248
H      -0.364724   -4.268553    0.866506
H       1.714084   -4.046893    2.319651
