12

O       0.114610    1.347960   -0.072272
C       0.070342    0.000417   -0.067689
C      -0.023093   -0.821566   -1.169461
N      -0.033225   -2.093282   -0.640766
C       0.051727   -1.988862    0.717095
N       0.116218   -0.710911    1.085892
C       0.065184   -3.118845    1.561930
C       0.074619   -4.101256    2.258364
H       0.179108    1.620820    0.851215
H      -0.079989   -0.623062   -2.224726
H      -0.092622   -2.955270   -1.156413
H       0.084012   -4.958437    2.885151
