16

N      -0.335818   -0.986552    0.670330
C      -0.146156    0.102111    0.331475
C       0.074346    1.460532   -0.118337
O       0.720782    2.342782    0.799783
C       1.439251    1.968672   -0.378641
C       2.683719    1.134911   -0.190153
C       3.839458    1.990915    0.278111
C       5.210745    1.768117   -0.190827
O       4.425240    2.842806   -0.711439
H      -0.764458    1.890310   -0.662633
H       1.520608    2.767709   -1.115921
H       2.488841    0.338827    0.535946
H       2.945217    0.666413   -1.145706
H       3.697638    2.469216    1.247760
H       6.051693    2.063087    0.434398
H       5.412811    0.956075   -0.888366
