21

C       0.045912    1.707735   -0.082581
C       0.039985    0.176338   -0.012392
C       0.692812   -0.471438   -1.232387
C       0.716515   -2.053284   -1.233406
C       0.678996   -2.869340    0.049005
C      -0.558929   -1.943114   -2.066970
O      -1.611114   -2.525721   -2.061162
C      -0.237142   -0.522053   -2.515425
O      -1.322785    0.342314   -2.672415
H       1.069929    2.092633   -0.147853
H      -0.505666    2.055477   -0.958844
H      -0.415024    2.142102    0.809963
H       0.566988   -0.152632    0.891333
H      -0.993171   -0.180287    0.089984
H       1.669313   -0.020160   -1.424732
H       1.540564   -2.385981   -1.875818
H      -0.161122   -2.578709    0.684852
H       0.564145   -3.932291   -0.182825
H       1.602860   -2.747011    0.622801
H       0.387981   -0.506423   -3.417368
H      -2.117201   -0.173222   -2.479700
