19

C      -0.189420   -1.241763   -0.320556
C      -0.089335   -0.056769   -0.143204
C       0.018515    1.383019    0.084237
C      -0.676891    1.814970    1.402471
O       0.162090    1.675469    2.528963
C       1.204375    2.636883    2.519005
C       2.077677    2.514156    1.287305
C       2.535464    1.150267    0.851929
C       1.478983    1.871480    0.052193
H      -0.275017   -2.287681   -0.481760
H      -0.519955    1.888625   -0.727857
H      -0.995686    2.865518    1.302670
H      -1.560067    1.199180    1.585638
H       0.772934    3.651559    2.573105
H       1.783252    2.467366    3.432834
H       2.754289    3.349717    1.131778
H       3.522605    1.045899    0.415991
H       2.205973    0.301438    1.441497
H       1.792481    2.266141   -0.908146
