20

C      -0.053516    1.520806    0.268217
C       0.077866    0.014805    0.092369
C      -1.242821   -0.657936   -0.247041
O       1.091075   -0.307829   -0.911215
C       2.011868   -0.791475    0.082903
C       0.943425   -0.700677    1.177135
O       1.332440    0.052957    2.306851
C       0.782944   -0.259588    3.499708
N       1.010808    0.463050    4.507063
H       0.904340    1.973809    0.531177
H      -0.406591    1.964552   -0.667631
H      -0.770626    1.763456    1.058891
H      -1.651640   -0.244952   -1.174531
H      -1.105972   -1.734217   -0.387197
H      -1.976913   -0.497376    0.550123
H       2.398641   -1.788180   -0.155328
H       2.850708   -0.105294    0.254066
H       0.529398   -1.666344    1.487130
H       0.169389   -1.171159    3.470066
H       0.545491    0.075938    5.325263
