17

O      -0.850347    1.081228   -0.243052
C       0.302020    0.816244   -0.014692
C       1.411033    1.828336   -0.045674
C       1.669611    2.549519    1.336134
C       3.152411    2.978077    1.152441
C       3.444677    2.426853   -0.282579
O       2.683340    1.210180   -0.267295
C       2.651943    3.288439   -1.259960
C       1.380479    2.922800   -1.103625
H       0.633526   -0.206895    0.268674
H       0.977352    3.376591    1.498253
H       1.559866    1.837390    2.158088
H       3.304029    4.056767    1.227011
H       3.798512    2.484586    1.881593
H       4.489167    2.224319   -0.514237
H       3.056558    4.095085   -1.855994
H       0.475398    3.330293   -1.529793
