16

O      -0.026714    1.292665    0.048635
N       0.017062   -0.084772    0.020615
C      -1.132859   -0.644230   -0.030749
C      -1.266069   -2.146947   -0.067916
C      -2.635940   -2.383528   -0.726947
O      -3.114302   -3.657634   -0.342927
C      -3.491641   -1.198395   -0.242886
C      -2.512155   -0.028701   -0.114676
O      -2.795843    1.141687   -0.098394
H       0.908754    1.527009    0.070051
H      -0.440522   -2.639388   -0.583771
H      -1.314185   -2.554184    0.950953
H      -2.523557   -2.324865   -1.820786
H      -3.938474   -3.825674   -0.810672
H      -4.341803   -0.939732   -0.878205
H      -3.875333   -1.432685    0.759834
