21

C      -0.017621    1.453929    0.121160
C      -0.043640   -0.046868   -0.043758
C       0.698700   -0.704878   -1.211894
C       0.433061   -2.135098   -0.694838
C       0.975558   -1.991301    0.732961
O       0.580762   -0.656843    1.120961
C      -1.110226   -2.148304   -0.618006
C      -1.452748   -0.702963   -0.116098
O      -2.107606   -0.649765    1.131250
H       1.005027    1.810963    0.270179
H      -0.434650    1.941337   -0.765474
H      -0.619535    1.748049    0.985678
H       0.235203   -0.501701   -2.181418
H       1.756396   -0.429029   -1.248414
H       0.880003   -2.956332   -1.256785
H       0.545440   -2.718568    1.431626
H       2.069580   -2.071053    0.778021
H      -1.548541   -2.343169   -1.601417
H      -1.502652   -2.894739    0.077929
H      -2.098045   -0.177649   -0.827486
H      -1.404257   -0.764874    1.787177
