22

C      -0.247081    1.566201    0.058664
C       0.028108    0.056838   -0.001644
C      -1.285266   -0.733238    0.078912
C       0.821788   -0.348942   -1.256301
C       2.242472    0.227921   -1.341496
C       2.992024   -0.290191   -2.544545
C       4.428225   -0.590409   -2.517008
O       3.461126   -1.641385   -2.473281
H       0.674940    2.154838    0.076702
H      -0.833459    1.890143   -0.810130
H      -0.818330    1.824123    0.956625
H       0.635101   -0.211199    0.875795
H      -1.932710   -0.504376   -0.776273
H      -1.102545   -1.812857    0.077326
H      -1.841639   -0.487028    0.989428
H       0.899687   -1.442482   -1.290271
H       0.253792   -0.053791   -2.150779
H       2.214202    1.323428   -1.395916
H       2.804176   -0.034482   -0.436408
H       2.552204   -0.035073   -3.511634
H       5.016415   -0.532163   -3.432128
H       4.989928   -0.434254   -1.596404
