14

C      -0.044578    1.586314   -0.064850
C       1.497584    1.314988    0.003577
O       1.174905    0.180939    0.887779
C      -0.013377    0.021942    0.011413
C       0.673233   -0.323081   -1.311486
C       1.693350    0.556113   -1.304558
O       2.423970    0.405271   -2.428616
C       1.758469   -0.614995   -3.076908
N       0.710466   -1.082834   -2.460969
H      -0.420661    2.041964    0.854143
H      -0.456384    2.060147   -0.958346
H       2.232748    2.013561    0.394487
H      -0.809930   -0.585120    0.433154
H       2.177757   -0.924887   -4.020314
