19

C      -0.060687    0.791740   -0.508582
C      -0.439998    0.678535    0.970833
C       0.507752   -0.194018    1.778278
O       0.416955   -1.535411    1.264328
C       1.220478   -2.446296    1.847784
N       2.018933   -2.188121    2.789892
N       0.983462   -3.680975    1.210118
C       1.595523   -4.871861    1.501708
O       2.436198   -5.045530    2.354452
H      -0.055212   -0.191461   -0.987022
H      -0.767811    1.427589   -1.049179
H       0.938235    1.225931   -0.626837
H      -0.443688    1.671761    1.435556
H      -1.458079    0.283581    1.070999
H       1.546297    0.144655    1.697869
H       0.248526   -0.206448    2.841503
H       2.519666   -3.029226    3.068942
H       0.294825   -3.665472    0.472606
H       1.223382   -5.684286    0.849423
