19

C      -0.154376    1.501100   -0.086188
C       0.029044   -0.002710    0.037237
O       0.785191   -0.521396   -1.084591
C       1.923424   -1.246873   -0.514405
C       2.836037   -0.277014    0.193191
C       2.170154    0.141844    1.279502
C       0.821226   -0.532700    1.274147
C       1.235282   -1.931499    0.682926
O       0.198284   -2.807136    0.342227
H       0.806583    2.020310   -0.074874
H      -0.659469    1.739167   -1.026819
H      -0.771729    1.879178    0.736234
H      -0.957101   -0.487923    0.034285
H       2.338881   -1.875690   -1.300280
H       3.807348    0.043896   -0.159543
H       2.495601    0.876803    2.004998
H       0.250970   -0.535471    2.202284
H       1.922747   -2.460701    1.344433
H      -0.179761   -2.482767   -0.485183
