20

C       0.065573    1.127282   -0.398391
O      -0.075633   -0.190648    0.094664
C       0.684664   -0.467907    1.260800
C       0.236824   -1.808794    1.857486
C       1.307793   -2.813957    1.355710
N       2.475560   -2.025017    0.945700
C       2.135493   -0.800446    0.922924
O       2.938500    0.215173    0.579825
C       4.269302   -0.150745    0.200809
H       1.085932    1.336676   -0.741136
H      -0.624673    1.224630   -1.239995
H      -0.201674    1.871346    0.368459
H       0.607430    0.375718    1.961915
H       0.252247   -1.751532    2.949334
H      -0.779658   -2.050047    1.541713
H       1.599272   -3.530912    2.129927
H       0.954790   -3.400655    0.498762
H       4.772564   -0.667447    1.022730
H       4.252887   -0.814970   -0.667638
H       4.780238    0.782859   -0.037158
