22

C      -0.380182    1.704992   -0.108728
O      -0.112017    0.342545    0.197894
C      -1.174356   -0.484974    0.149265
N      -1.045763   -1.713803    0.388392
C      -2.221283   -2.539571    0.316061
C      -2.145146   -3.787785   -0.605486
C      -2.883554   -4.602519    0.489180
C      -2.510632   -3.497885    1.523618
C      -1.294979   -3.830825    2.381875
H       0.568343    2.234335   -0.011481
H      -0.751657    1.820964   -1.134300
H      -1.106148    2.139881    0.589233
H      -2.125256    0.007524   -0.112314
H      -3.128142   -1.955171    0.084856
H      -2.608215   -3.708027   -1.592181
H      -1.107413   -4.106204   -0.729489
H      -3.960542   -4.662344    0.309672
H      -2.511635   -5.609206    0.696484
H      -3.332039   -3.164699    2.166339
H      -0.454812   -4.178709    1.773572
H      -0.949711   -2.952993    2.935828
H      -1.543340   -4.618239    3.102167
