17

C      -0.098317    1.501990    0.036907
C       0.000056    0.014344   -0.020717
C      -0.030456   -0.802757   -1.086526
C       0.076047   -2.245006   -0.614051
C       1.392987   -2.460835    0.114386
C       1.422681   -1.653376    1.184756
C       0.127765   -0.859316    1.227142
C      -0.792714   -2.025315    0.687791
O      -1.778104   -2.536572    1.103384
H       0.805799    1.944394    0.473785
H      -0.239733    1.931471   -0.958741
H      -0.938531    1.818865    0.667289
H      -0.139851   -0.517444   -2.124466
H      -0.243025   -3.019111   -1.308447
H       2.140681   -3.178731   -0.193571
H       2.198413   -1.575966    1.934058
H      -0.143575   -0.398310    2.175332
