20

C      -0.047384    1.302313   -0.404858
C       0.293407   -0.131835   -0.064826
O      -0.399895   -1.043578   -0.896664
C       1.680890   -0.555855    0.267717
C       0.626106   -0.554124    1.379585
C       0.724942    0.502655    2.466640
C       0.162960   -1.887714    1.939317
N       0.066699   -2.942786    1.072309
O      -0.062507   -2.012415    3.131353
H       0.567789    2.017872    0.141454
H       0.105786    1.464150   -1.476434
H      -1.097471    1.522499   -0.174916
H      -1.344979   -0.913036   -0.752177
H       2.008245   -1.520994   -0.101961
H       2.457160    0.200807    0.317130
H       1.218337    1.408158    2.107365
H      -0.262449    0.774098    2.851586
H       1.297778    0.108174    3.308447
H      -0.059002   -2.755042    0.088388
H      -0.342969   -3.777282    1.462032
