21

C       0.098991    1.446494   -0.266302
C      -0.078944   -0.012975    0.174367
C      -1.508974   -0.471782    0.129324
C      -2.660477   -0.010157    1.030428
C      -3.433557   -1.239867    0.472384
O      -4.373970   -1.922696    1.227907
C      -3.671292   -0.888164   -1.026005
C      -2.154643   -1.012940   -1.162619
C      -2.048105   -1.881876    0.070825
H       1.149340    1.749655   -0.216500
H      -0.247780    1.590586   -1.294700
H      -0.474571    2.124262    0.374741
H       0.526788   -0.667518   -0.466058
H       0.312007   -0.137855    1.192957
H      -2.412387   -0.155896    2.086337
H      -3.099123    0.984376    0.878403
H      -5.131794   -1.343054    1.365784
H      -4.185713   -1.706689   -1.537492
H      -4.155044    0.068665   -1.259595
H      -1.575197   -1.097730   -2.073507
H      -1.598847   -2.847996    0.248712
