20

C       0.025874    1.415472   -0.119535
N      -0.007411   -0.037376    0.051974
C      -1.298853   -0.538812    0.655721
C      -1.411622   -2.033414    0.333015
C      -0.274707   -2.807479    1.038762
C       1.042592   -2.000134    1.091221
C       0.730522   -0.511294    1.282676
C      -0.610775   -0.293317    2.016220
O      -0.938878    0.197622    3.056700
H       1.037300    1.716196   -0.408253
H      -0.653642    1.693268   -0.930623
H      -0.259895    1.986472    0.780453
H      -2.191331    0.040778    0.407961
H      -2.384290   -2.423062    0.651263
H      -1.349480   -2.140089   -0.755109
H      -0.590433   -3.009655    2.069602
H      -0.116464   -3.782637    0.569354
H       1.675637   -2.368009    1.905539
H       1.607587   -2.099992    0.158448
H       1.592584    0.092088    1.576964
