13

O       0.031743   -0.027621    0.016087
C      -0.019090    1.175989    0.033450
C      -1.233334    2.042141    0.113503
C      -0.897540    3.330054   -0.020560
C       0.599889    3.492054   -0.143055
O       1.282499    3.016100    1.047282
C       1.170945    2.133131   -0.075614
C       1.173425    4.596767   -0.848279
C       1.611589    5.542571   -1.445969
H      -2.223328    1.636587    0.275050
H      -1.565620    4.181910   -0.013103
H       2.094668    1.827968   -0.556196
H       2.013017    6.372362   -1.974169
