14

C      -0.066450    1.545091   -0.077742
C      -0.039722    0.037524    0.043301
O       1.237904   -0.585820   -0.162211
C       0.689280   -0.637796    1.160621
C       1.356196    0.097946    2.199565
C       1.902110    0.687541    3.093775
C      -1.165121   -0.659373   -0.537447
C      -2.115156   -1.211775   -1.023947
H       0.796122    1.980403    0.428926
H      -0.044853    1.831774   -1.132903
H      -0.982793    1.944530    0.366264
H       0.331950   -1.624992    1.450762
H       2.388696    1.209626    3.880664
H      -2.949591   -1.707888   -1.455235
