16

C       0.062003    1.527943   -0.038175
C       0.044253    0.028361   -0.095765
C       0.087714   -0.762610    1.199884
C       1.287830   -0.521598    1.991162
C       2.280538   -0.324828    2.650968
C       3.476258   -0.072569    3.413035
O       3.774009   -0.649571    4.433582
N      -0.032466   -0.687142   -1.150593
O      -0.116481    0.080557   -2.316699
H       0.374758    1.950029   -0.992820
H      -0.940535    1.911094    0.189984
H       0.732131    1.870710    0.754922
H      -0.789227   -0.509709    1.814019
H       0.008125   -1.827775    0.958852
H       4.128191    0.715441    2.983665
H      -0.120815   -0.594576   -3.003607
