18

C       0.173592    1.580616    0.017315
C       1.380335    0.680850    0.093508
C      -0.015190    0.082488   -0.009574
N      -0.129444   -0.647939   -1.264619
C      -0.538769    0.091821   -2.509060
C       0.921368    0.112011   -2.989129
O       1.689932    1.171979   -2.368982
C       2.059044    0.333048   -1.226406
C       1.248975   -0.833698   -1.820215
H      -0.125544    2.089885    0.927609
H       0.055797    2.159789   -0.889129
H       1.967367    0.632236    1.003354
H      -0.483352   -0.385062    0.851069
H      -1.190833   -0.534070   -3.129121
H      -1.017975    1.061979   -2.354683
H       1.169887   -0.017406   -4.043472
H       3.147373    0.251034   -1.150206
H       1.633623   -1.852977   -1.863338
