22

C       0.095471    1.497778    0.239376
C      -0.050287    0.017317   -0.154480
C      -1.465399   -0.479078   -0.121800
C      -2.161558   -0.991293   -1.143784
C      -3.501731   -1.465260   -0.700664
N      -3.410980   -2.559277    0.319137
C      -3.607743   -1.156278    0.752524
C      -4.886299   -0.760986    1.444039
C      -2.291287   -0.488054    1.158505
H       1.142581    1.811499    0.188801
H      -0.484057    2.139720   -0.431791
H      -0.255778    1.678282    1.260226
H       0.362503   -0.137462   -1.157717
H       0.561690   -0.589551    0.528001
H      -1.790528   -1.105828   -2.156127
H      -4.360341   -1.451130   -1.364817
H      -4.316712   -3.027048    0.364381
H      -5.756201   -1.216062    0.958122
H      -4.884418   -1.080334    2.493303
H      -5.025497    0.325702    1.430230
H      -1.788278   -1.044540    1.959139
H      -2.463171    0.528589    1.537685
