19

O       0.012068    1.298131    0.817512
C       0.101102    0.075120    0.108323
C       0.894871   -0.938415    0.944666
C      -0.131492   -1.616971    1.862005
C      -0.783066   -0.763443    2.977478
O      -2.062826   -0.746407    2.280550
C      -1.506493   -1.487100    1.168806
C      -1.319928   -0.556896   -0.052174
O      -2.331949    0.431449   -0.096883
H      -0.805202    1.710267    0.501023
H       0.566911    0.242532   -0.873924
H       1.348527   -1.686838    0.284769
H       1.705864   -0.444860    1.487575
H       0.165867   -2.615414    2.183225
H      -0.882303   -1.251483    3.952495
H      -0.375237    0.243188    3.094427
H      -2.099393   -2.380058    0.950627
H      -1.366035   -1.136137   -0.981200
H      -2.650634    0.491529    0.819356
