20

C       0.798505    0.396199   -0.212976
N      -0.353139    0.598059    0.661224
C      -1.490506    1.294122    0.065983
C      -1.550648   -0.169135    0.326303
C       1.705677    1.583095   -0.223256
C       3.199402    1.579249   -0.339101
C       2.534924    2.294820    0.823103
C       1.865958    3.559400    0.305202
O       1.182758    2.817843   -0.743856
H       1.358094   -0.473878    0.149060
H       0.498564    0.178409   -1.256216
H      -2.007067    1.992312    0.718164
H      -1.400337    1.620807   -0.967131
H      -1.508145   -0.831368   -0.537453
H      -2.109159   -0.561849    1.171125
H       3.693297    0.649770   -0.072614
H       3.673523    2.143638   -1.137871
H       2.717669    2.044969    1.858819
H       1.140422    3.989962    1.003773
H       2.509035    4.350159   -0.099787
