17

O      -0.127025    1.286264    0.165385
N       0.011716   -0.111253    0.163456
C      -1.106254   -0.682935   -0.029943
C      -2.480739   -0.085416   -0.205635
O      -3.330300   -1.182671   -0.515708
C      -2.767841   -2.362033    0.053957
C      -1.260965   -2.163529   -0.048149
C      -0.327046   -3.031401   -0.819299
N      -0.338540   -3.055300    0.649946
H       0.774801    1.586531    0.321348
H      -2.790388    0.426678    0.720240
H      -2.523946    0.643557   -1.020208
H      -3.060758   -2.476717    1.109761
H      -3.140835   -3.220642   -0.508647
H      -0.706409   -3.931247   -1.296926
H       0.498584   -2.541343   -1.327681
H       0.438530   -2.501445    1.007744
