22

C      -0.036190    1.565371   -0.022662
C       0.046738    0.037171   -0.013637
C       0.677832   -0.522214   -1.299330
C       0.722770   -2.057032   -1.303354
C       1.443682   -2.603247   -0.062927
C       0.824336   -2.058075    1.229889
C       0.786150   -0.509646    1.241332
C       2.145122    0.036912    1.342186
N       3.218575    0.460835    1.416582
H       0.959782    2.015488   -0.087004
H      -0.618433    1.913366   -0.881604
H      -0.517754    1.945794    0.884721
H      -0.974376   -0.363144    0.062076
H       0.113571   -0.156888   -2.165004
H       1.695838   -0.122202   -1.400409
H      -0.303705   -2.449038   -1.328305
H       1.214220   -2.416058   -2.214023
H       1.411386   -3.697902   -0.052499
H       2.503512   -2.321016   -0.100616
H      -0.210422   -2.410056    1.324740
H       1.368567   -2.422103    2.106709
H       0.247489   -0.172905    2.135937
