18

N      -0.135098    1.370507    0.084914
C       0.044102   -0.006744   -0.009758
O       1.147178   -0.523256   -0.031075
N      -1.131178   -0.718895   -0.053518
C      -1.142450   -2.152426    0.036116
C      -1.511815   -2.843899    1.413231
C      -2.720196   -3.468017    0.716544
N      -3.528318   -2.328596    0.209528
C      -2.371439   -2.827470   -0.580203
H       0.710555    1.878849   -0.125409
H      -0.962726    1.763397   -0.338572
H      -1.998197   -0.268616    0.199224
H      -0.193157   -2.519498   -0.350329
H      -0.755092   -3.568512    1.720247
H      -1.742495   -2.171638    2.243006
H      -3.181983   -4.428627    0.904875
H      -4.368859   -2.716264   -0.217270
H      -2.504847   -3.167291   -1.600165
