11

O      -0.085383    1.441331    0.015832
C       0.017246    0.040485    0.010533
C       0.690278   -0.516858   -1.272191
C      -0.023772   -0.103559   -2.476339
N      -0.591668    0.213556   -3.430372
C       0.741805   -0.465568    1.194753
N       1.339699   -0.841060    2.109032
H       0.797850    1.825008    0.074988
H      -1.012044   -0.329587    0.054754
H       1.727046   -0.165719   -1.323648
H       0.724775   -1.610569   -1.224278
