19

O      -0.633756    1.340979   -0.240057
C      -0.068396    0.052235   -0.001319
C      -1.248732   -0.919097    0.151429
C      -1.682952   -1.270424   -1.285397
C      -2.538779   -0.205498   -2.044362
C      -1.279868    0.187951   -2.831999
O      -1.029675    1.030300   -3.645195
C      -0.437262   -0.930943   -2.183541
C       0.683931   -0.467458   -1.239894
H       0.061570    1.927469   -0.555396
H       0.570418    0.076670    0.892525
H      -0.904855   -1.821546    0.668470
H      -2.047309   -0.474689    0.751667
H      -2.073356   -2.285435   -1.362401
H      -3.315369   -0.630759   -2.689238
H      -2.975205    0.597417   -1.447024
H      -0.111689   -1.684246   -2.905619
H       1.328584    0.295973   -1.689623
H       1.322980   -1.313358   -0.961053
