17

N      -0.375627    1.488705   -0.001477
C      -0.054469    0.100311   -0.088768
C      -1.261352   -0.845808    0.082167
O      -2.450791   -0.319479   -0.541081
C      -2.268602   -1.160325   -1.710952
C      -0.900468   -1.635116   -1.208521
C       0.278435   -0.644587   -1.483591
C       0.200739    0.172332   -2.675745
N       0.115923    0.866805   -3.597712
H       0.376012    2.082363   -0.333534
H      -1.211370    1.686674   -0.542803
H       0.745691   -0.146375    0.616376
H      -1.460208   -1.272193    1.068027
H      -3.026293   -1.952270   -1.745288
H      -2.291224   -0.589807   -2.645004
H      -0.662772   -2.695587   -1.251036
H       1.252293   -1.138508   -1.450400
