18

O      -0.139535   -0.041766    0.240070
C      -0.061974    1.119979   -0.097479
N       1.103915    1.812314   -0.229106
C       2.391131    1.198757   -0.051825
C       2.691215    0.510759    1.308611
C       4.003705    1.347231    1.443512
C       3.716306    2.005418    0.075025
O       4.300581    1.287857   -1.027733
C       3.085380    0.536668   -1.263507
H      -0.945998    1.750375   -0.320864
H       1.064186    2.736540   -0.631584
H       1.944064    0.746066    2.066450
H       2.799444   -0.573342    1.256809
H       3.987444    2.049749    2.280794
H       4.941890    0.789825    1.463741
H       3.812128    3.090855   -0.030374
H       3.241548   -0.546656   -1.210498
H       2.633635    0.795054   -2.229830
