23

C       0.102909    1.592022   -0.025036
C       0.040073    0.050488   -0.035509
C       0.672712   -0.472177   -1.247601
C       1.213032   -0.881469   -2.241139
C       0.663634   -0.574106    1.233092
C      -0.015623   -0.137114    2.553208
C       0.238961   -1.289216    3.568285
C       0.932904   -2.418188    2.762650
C       0.599296   -2.109458    1.296325
H       1.141171    1.933843    0.029775
H      -0.339167    2.003224   -0.936203
H      -0.439910    1.995135    0.834064
H      -1.020074   -0.244756   -0.055192
H       1.679137   -1.251288   -3.120479
H       1.721471   -0.277385    1.263062
H       0.358127    0.824559    2.913971
H      -1.092536   -0.011911    2.384835
H       0.853935   -0.961819    4.411100
H      -0.707175   -1.638658    3.992371
H       2.018616   -2.371442    2.907548
H       0.614073   -3.416882    3.073784
H      -0.421590   -2.441711    1.061245
H       1.270874   -2.592917    0.583160
