19

C       0.003814    1.555691   -0.018268
C       0.084127    0.046320   -0.061003
C       0.694096   -0.748193   -1.170388
C       0.014706   -1.836899   -1.938913
N       1.821826    0.012367   -1.740880
C       2.571803   -0.091315   -0.447853
C       1.362239   -0.743664    0.237720
C       1.429449   -1.747367    1.240397
N       1.484699   -2.578479    2.046686
H       0.803490    2.010897   -0.605716
H      -0.948913    1.891172   -0.441179
H       0.061950    1.925002    1.010359
H      -0.774740   -0.463113    0.371133
H      -0.517269   -1.417256   -2.800917
H       0.734824   -2.574496   -2.310201
H      -0.714672   -2.358673   -1.313872
H       2.287101   -0.523885   -2.465574
H       3.419365   -0.779124   -0.500126
H       2.910019    0.870040   -0.048256
