19

O      -0.396091    1.246467    0.010396
C      -0.058834   -0.125190    0.045347
C       0.737072   -0.497536   -1.198568
C       0.460810    0.120648   -2.496965
O       1.578636    0.552695   -1.700406
C       0.688745   -0.506261    1.326711
O       0.933448   -1.890074    1.413190
C       1.676902    0.435653    1.959592
C       0.332704    0.171448    2.612457
H       0.368475    1.689471   -0.386346
H      -0.997851   -0.694385    0.037056
H       1.201239   -1.482166   -1.184670
H       0.726411   -0.404601   -3.411995
H      -0.348634    0.841901   -2.578274
H       1.801776   -2.065403    1.036498
H       2.554556   -0.007101    2.418552
H       1.841700    1.405589    1.504913
H      -0.406398    0.962258    2.576004
H       0.319873   -0.454723    3.496614
