20

C      -0.268923    1.518075    0.042697
C      -0.015331    0.026337    0.038148
C       1.339179   -0.532660   -0.328347
C       0.830653   -0.661081    1.089627
C       1.487547    0.087944    2.206668
C       0.832395    0.160784    3.577404
C       2.082859   -0.656305    3.370805
O       1.994568   -2.052539    3.343768
H       0.613230    2.080394    0.362849
H      -0.534953    1.871761   -0.959786
H      -1.090743    1.782814    0.717632
H      -0.865989   -0.557084   -0.306829
H       1.398688   -1.422198   -0.946087
H       2.137512    0.182337   -0.506988
H       0.501687   -1.652677    1.381630
H       2.040383    0.972889    1.905520
H       0.888801    1.082831    4.146213
H      -0.091073   -0.396263    3.701359
H       3.014435   -0.272120    3.786986
H       1.792932   -2.352195    4.235982
