19

C      -0.071504    1.518799   -0.019756
C       0.039512    0.023106   -0.006635
C      -0.858485   -0.910938    0.756722
C       0.622136   -0.909729    1.055162
C       1.429769   -1.632572   -0.066852
C       2.753803   -2.327517    0.035093
O       3.248516   -2.677455   -1.238206
O       0.507693   -2.166079   -1.045418
C       0.859064   -0.764657   -1.086860
H       0.899626    1.993411   -0.203857
H      -0.760789    1.860577   -0.801717
H      -0.446557    1.891511    0.938632
H      -1.466237   -0.427481    1.515980
H      -1.317778   -1.764644    0.274750
H       1.034610   -0.653944    2.022807
H       3.487490   -1.662644    0.505491
H       2.646320   -3.209225    0.691090
H       2.491794   -3.030269   -1.724025
H       1.260167   -0.376916   -2.016050
