19

O       0.507594    0.825178   -0.701901
C       0.097240   -0.270841    0.074404
C       0.025642   -0.109311    1.629845
C      -1.358577   -0.766907    1.589106
C      -1.938293   -1.779354    2.471738
O      -2.439800   -0.431805    2.442359
C      -1.396977   -0.653703    0.081532
C      -2.470584    0.064573   -0.691824
C      -2.212585   -1.402982   -0.925143
H      -0.061192    1.570853   -0.479619
H       0.742700   -1.100968   -0.225882
H       0.803482   -0.595363    2.222436
H      -0.039174    0.944313    1.920167
H      -2.610412   -2.535138    2.066966
H      -1.419394   -2.062792    3.386981
H      -3.362521    0.350199   -0.145052
H      -2.152396    0.760995   -1.461280
H      -1.726264   -1.694242   -1.850824
H      -2.946032   -2.114994   -0.559205
