18

C      -0.075449    1.508402    0.071771
C       0.002872   -0.001535    0.057691
C       1.325257   -0.704413   -0.240001
C       0.726328   -0.749444    1.128010
N       1.290523   -0.204072    2.356695
C       0.752660   -1.163250    3.178096
O       0.702571   -1.307845    4.371079
C       0.201380   -1.940953    1.945206
O      -1.190759   -2.111835    1.898441
H       0.847548    1.955795    0.457410
H      -0.231993    1.903689   -0.937227
H      -0.901217    1.856345    0.701285
H      -0.890217   -0.501420   -0.308142
H       1.321196   -1.608451   -0.840600
H       2.198106   -0.074719   -0.387263
H       1.742583    0.674496    2.564340
H       0.744756   -2.876723    1.752514
H      -1.461819   -2.497728    2.739403
