18

C      -0.241370    1.524181    0.088507
C      -0.008911    0.028425    0.024578
C      -1.225045   -0.780178   -0.386733
C       1.336191   -0.485878   -0.352111
C       0.890024   -0.657756    1.094903
C       1.555656    0.135741    2.141192
O       2.194397    1.152133    1.974961
C       1.387334   -0.400458    3.512425
N       1.257309   -0.823387    4.580873
H       0.642842    2.062750    0.431413
H      -0.502716    1.894470   -0.909118
H      -1.074131    1.763858    0.758669
H      -1.561093   -0.472813   -1.383580
H      -1.008772   -1.851944   -0.422154
H      -2.057137   -0.622902    0.307601
H       1.412715   -1.392059   -0.943268
H       2.132130    0.236215   -0.500203
H       0.556983   -1.638680    1.414216
