19

C      -0.046326    1.481513    0.122861
N       0.094928    0.024682    0.044636
C       0.705878   -0.505002   -1.179990
C      -0.111916   -0.104992   -2.427680
C       2.098753   -0.019907   -1.346087
N       3.150805    0.451822   -1.425701
C       0.723224   -2.062289   -1.063014
C      -0.617278   -2.735086   -0.852149
O       1.756768   -2.674344   -1.148938
H       0.885810    2.030282   -0.078815
H      -0.811462    1.825193   -0.578000
H      -0.386434    1.735224    1.129851
H       0.646605   -0.290421    0.837080
H      -0.026387    0.965651   -2.621885
H       0.261243   -0.634586   -3.307789
H      -1.164501   -0.351834   -2.273333
H      -1.141899   -2.807528   -1.811987
H      -0.451533   -3.745142   -0.475789
H      -1.245457   -2.156537   -0.172924
