9

N       0.034192   -1.129416   -0.007123
C       0.003341    0.024520    0.016085
C      -0.038077    1.474410    0.063380
C       0.541969    2.182903    1.236154
O       1.222501    2.139517   -0.007288
C      -1.125544    2.090834   -0.673887
N      -1.995998    2.586534   -1.248039
H       0.116668    3.144727    1.512717
H       0.970538    1.581811    2.034584
