18

C      -0.107841    1.537415   -0.140821
C      -0.022551    0.007392   -0.094438
C       0.803986   -0.542278   -1.278480
O       0.239418   -0.240200   -2.538916
C       0.573922   -0.542791    1.192174
O       1.359910    0.310437    2.028334
C       0.149664   -0.215137    2.572945
C      -0.918497    0.711853    2.878104
N      -1.790867    1.413494    3.166428
H       0.883807    1.987437   -0.035200
H      -0.538985    1.849470   -1.096581
H      -0.746353    1.943461    0.644865
H      -1.032685   -0.412612   -0.194800
H       1.841765   -0.179693   -1.201702
H       0.837842   -1.636274   -1.223161
H       0.409969    0.685896   -2.732891
H       0.997594   -1.545561    1.094706
H       0.286827   -0.971290    3.345191
