15

C      -0.045471    1.525338    0.079039
C       0.016273   -0.009062   -0.036521
C       0.701599   -0.463616   -1.237101
C       1.272523   -0.819255   -2.237959
C       1.936861   -1.248590   -3.402104
N       2.459905   -0.527156   -4.359233
C       2.951471   -1.490618   -5.196827
N       2.758625   -2.723606   -4.810733
O       2.076282   -2.575819   -3.605201
H       0.959348    1.954123    0.107116
H      -0.575817    1.958527   -0.772626
H      -0.569619    1.810179    0.995246
H       0.522594   -0.431399    0.840841
H      -0.998607   -0.426879   -0.029596
H       3.466620   -1.267463   -6.119886
