23

C       0.182229    1.486923    0.151658
C       0.019606   -0.049830    0.030272
C       0.563764   -0.686506    1.332299
C      -1.411675   -0.377055   -0.061623
C      -2.582675   -0.645919   -0.117971
C       0.726109   -0.558679   -1.257564
C       0.221713    0.071927   -2.547728
C       2.195907   -0.909037   -1.228381
C       1.158599   -2.000462   -1.363253
H       1.245364    1.748398    0.161779
H      -0.297202    2.012303   -0.676047
H      -0.271295    1.843446    1.080565
H      -0.013562   -0.314749    2.182706
H       0.474927   -1.774575    1.327733
H       1.610614   -0.415501    1.495164
H      -3.616013   -0.884231   -0.171888
H       0.453083    1.140560   -2.600933
H       0.691787   -0.405045   -3.412925
H      -0.861853   -0.046488   -2.645609
H       2.788132   -0.647217   -2.099160
H       2.743124   -0.849687   -0.295297
H       1.013140   -2.663417   -0.519158
H       1.041717   -2.488375   -2.325063
