20

C       0.029014    1.891100    0.368192
C      -0.043486    0.415771   -0.029767
C       0.769064   -0.472948    0.943414
C       0.796186   -1.931211    0.531408
O       0.318923   -2.820706    1.189589
N      -1.434291   -0.009716   -0.115668
C      -1.844475   -0.963059   -1.006367
C      -3.298188   -1.385082   -0.884511
O      -1.086880   -1.445940   -1.831525
H       1.067006    2.234418    0.389068
H      -0.525976    2.509661   -0.342347
H      -0.392542    2.053165    1.367584
H       0.362821    0.284742   -1.036875
H       1.804108   -0.104730    0.960351
H       0.360288   -0.408077    1.957408
H       1.296328   -2.133896   -0.438818
H      -2.067423    0.285871    0.610532
H      -3.928825   -0.624118   -0.416707
H      -3.680403   -1.617131   -1.879530
H      -3.352026   -2.298370   -0.282865
