14

C      -0.001857    1.466689   -0.053281
N       1.347161    2.017662    0.116713
C       2.353906    1.277595    0.269340
O       2.442376   -0.097042    0.312051
C       1.231182   -0.714429    0.162143
C       0.927296   -2.055706    0.151047
N      -0.421716   -2.093787   -0.030426
N      -0.994720   -0.877535   -0.135095
C       0.020021   -0.028405   -0.016901
H      -0.642212    1.884990    0.733811
H      -0.407952    1.846237   -0.999629
H       3.348953    1.695860    0.394468
H       1.529852   -2.942357    0.252309
H      -1.003891   -2.910847   -0.090815
