21

C       0.066229    1.549547    0.040350
C       0.000182    0.017619    0.008443
C       0.647768   -0.536636   -1.281529
C       0.701026   -2.058044   -1.311920
N       2.026002   -2.684414   -1.120341
C       1.020661   -2.774602   -0.048488
C       1.198915   -1.965279    1.207097
N       2.098780   -0.800375    1.171365
C       0.646551   -0.580580    1.248874
H       1.108333    1.885852    0.061662
H      -0.411333    1.984627   -0.844021
H      -0.437104    1.954194    0.925241
H      -1.058113   -0.284490    0.024386
H       0.089579   -0.162611   -2.146459
H       1.668514   -0.152732   -1.355374
H       0.014126   -2.550635   -1.996465
H       2.063210   -3.570347   -1.618668
H       0.545167   -3.739189    0.117687
H       1.168698   -2.540022    2.130066
H       2.535219   -0.674421    2.079732
H       0.232930   -0.236571    2.196082
