21

C      -0.885134    0.942447   -1.494908
C      -0.274559   -0.218386   -0.736914
C       1.218001   -0.465333   -0.641958
C       2.257038    0.416525   -1.304342
C       0.435817   -0.049163    0.589767
C       0.588535    1.314569    1.243664
O      -0.639188    1.772386    1.813596
C       1.665555    1.294759    2.242270
C       2.523376    1.247522    3.083613
H      -0.256547    1.835958   -1.487907
H      -1.052186    0.671913   -2.543166
H      -1.849044    1.222967   -1.058860
H      -0.878040   -1.120974   -0.800821
H       1.504395   -1.514366   -0.644497
H       1.961293    1.467007   -1.354283
H       3.207821    0.370088   -0.762889
H       2.441655    0.084553   -2.331892
H       0.270489   -0.832832    1.326428
H       0.829100    2.069709    0.490245
H      -0.851531    1.184567    2.547296
H       3.288380    1.222948    3.819872
