20

C      -0.064824    1.477029    0.112023
C      -0.013155   -0.010715   -0.003700
C      -0.060841   -0.847088   -1.256359
C       1.043241   -1.883391   -1.216279
C       1.084217   -2.083595    0.281761
N       0.776832   -0.811854    1.018802
C      -0.255445   -1.898958    0.899515
C      -0.811578   -2.622327    2.085125
C      -1.062438   -1.085873   -0.128735
H       0.926403    1.914161   -0.056253
H      -0.753009    1.899477   -0.627061
H      -0.400407    1.783947    1.107936
H      -0.408452   -0.398861   -2.179294
H       0.789585   -2.808064   -1.746720
H       1.990665   -1.501868   -1.612791
H       1.834505   -2.707606    0.755718
H      -1.509835   -1.987981    2.642322
H      -1.349298   -3.526775    1.776883
H      -0.007208   -2.916569    2.765564
H      -2.137949   -1.025166   -0.226621
