21

C      -0.364093    1.469329   -0.058819
C      -0.006487   -0.030711   -0.010094
C       0.701451   -0.492084   -1.312469
C       2.031827    0.198150   -1.561382
O       2.138446    1.102021   -2.361236
C       3.215667   -0.265690   -0.728979
C       3.151404    0.267131    0.721118
C       2.016059   -0.242335    1.577445
C       0.722706   -0.373792    1.272154
H       0.533593    2.091198   -0.118680
H      -0.983408    1.693122   -0.933423
H      -0.917709    1.763170    0.837801
H      -0.952790   -0.584582    0.011456
H       0.854810   -1.575761   -1.260735
H       0.052380   -0.267811   -2.163621
H       3.251330   -1.360647   -0.705288
H       4.123256    0.108912   -1.209094
H       4.097121    0.011562    1.209445
H       3.126842    1.365502    0.683232
H       2.304931   -0.510733    2.591759
H       0.071957   -0.732109    2.068108
