19

O      -0.910891    0.293249    1.435304
C      -0.587892    0.469674    0.072594
C      -1.376388   -0.455894   -0.872101
O      -0.918627   -0.299154   -2.211434
C      -1.331959   -1.908753   -0.453156
C      -1.584755   -3.133080   -1.349032
C      -2.074474   -3.909897   -0.075350
C      -1.789132   -2.645504    0.739491
O      -0.389063   -2.340770    0.564148
H      -0.529433   -0.561238    1.676177
H      -0.810633    1.507918   -0.189538
H       0.487525    0.307557   -0.111634
H      -2.425499   -0.140292   -0.898320
H       0.023923   -0.502391   -2.226490
H      -2.382122   -2.964843   -2.075383
H      -0.702793   -3.522064   -1.861911
H      -3.136245   -4.162192   -0.120121
H      -1.501187   -4.790555    0.222188
H      -2.256135   -2.286875    1.649372
