20

C       0.128046    1.512853   -0.038600
C       0.018001   -0.007274   -0.011643
C      -1.438949   -0.456508   -0.144356
C       0.963261   -0.780650   -1.002752
C       1.490310   -1.644604    0.163228
O       2.887677   -1.441146    0.477540
C       2.887901   -0.462124    1.417936
N       1.793428   -0.003264    1.868086
C       0.728512   -0.745962    1.180237
H       1.158650    1.842874    0.112817
H      -0.221908    1.901407   -1.002092
H      -0.482161    1.967465    0.749165
H      -1.867686   -0.109922   -1.091434
H      -1.531824   -1.548268   -0.118041
H      -2.049266   -0.050568    0.670108
H       0.459194   -1.324542   -1.805797
H       1.751721   -0.162722   -1.439404
H       1.307033   -2.717910    0.120342
H       3.876958   -0.143252    1.728902
H       0.056048   -1.199793    1.913874
