12

O      -0.085598    0.020249    0.001640
C      -0.037911    1.219150    0.008374
C       1.320956    1.962343   -0.001173
O       2.361893    1.347213   -0.016003
C       1.284348    3.433943    0.008513
N       0.144263    4.144793    0.025069
N       0.568780    5.389582    0.028321
N       1.888772    5.577905    0.015652
C       2.367417    4.339715    0.002948
H      -0.942844    1.856723    0.021638
H      -0.072994    6.168042    0.039909
H       3.425491    4.137999   -0.009418
