18

C       0.029767    1.531809   -0.006305
C       0.010566    0.028096   -0.011274
C      -0.079509   -0.714626   -1.185777
N      -0.100722   -2.048522   -1.251822
C      -0.029316   -2.703148   -0.093530
C       0.064400   -2.098721    1.159520
C       0.141576   -2.906058    2.429445
C       0.083532   -0.698925    1.182417
O       0.171895    0.010828    2.338999
H       0.946228    1.918162    0.452816
H      -0.035220    1.922485   -1.024985
H      -0.805500    1.940127    0.572981
H      -0.138192   -0.187048   -2.136492
H      -0.046995   -3.790591   -0.152581
H       1.069885   -2.717334    2.985503
H      -0.696949   -2.695225    3.106941
H       0.112932   -3.975530    2.207497
H       0.215443   -0.595828    3.085366
