17

C       0.053212    1.524227   -0.286732
C       0.010970    0.082290   -0.097115
C      -0.032286   -1.109348    0.067130
C      -0.079552   -2.549316    0.248314
N      -0.056757   -3.043251    1.670518
C      -1.202500   -3.966816    1.427713
C      -1.408167   -3.286145    0.095486
N      -2.281943   -3.237657   -0.812492
O      -3.357579   -4.094794   -0.522118
H       0.964015    1.833640   -0.811073
H      -0.803714    1.869863   -0.875370
H       0.027581    2.048916    0.674653
H       0.689530   -3.025252   -0.380427
H       0.809355   -3.510924    1.913214
H      -0.948723   -5.031597    1.330463
H      -2.017644   -3.869228    2.152391
H      -3.946729   -3.940939   -1.268628
