18

C       0.378581    1.471243    0.241276
C      -0.292808    0.155663   -0.170437
C       0.333845   -0.443680   -1.405116
O       1.634211   -1.054592   -1.238583
C       0.542376   -1.879398   -1.578506
C       0.066295   -3.086453   -0.774734
O      -0.066469   -3.851576   -1.993948
C       0.476899   -2.784768   -2.804583
H       1.441538    1.311446    0.443964
H       0.296701    2.222746   -0.551434
H      -0.083773    1.883678    1.142540
H      -0.229984   -0.569127    0.649023
H      -1.359858    0.321700   -0.368291
H       0.260252    0.165713   -2.309319
H       0.823192   -3.503084   -0.098023
H      -0.887477   -2.986872   -0.242333
H      -0.205698   -2.486235   -3.609359
H       1.457469   -3.037130   -3.228214
