19

C       0.042251    1.434390   -0.028520
C      -0.163782   -0.047024   -0.002866
C      -0.303284   -0.898635   -1.027253
C       0.242821   -1.105730   -2.423803
C       0.874386   -2.418455   -1.825000
C      -0.163462   -2.353152   -0.645145
C       0.145774   -2.296977    0.839909
O       1.307328   -1.559217    1.207673
C       0.025081   -0.872150    1.240047
H       1.014816    1.707945    0.399606
H      -0.006286    1.825788   -1.048294
H      -0.720718    1.955706    0.563714
H      -0.523091   -1.340306   -3.170508
H       0.917264   -0.347086   -2.827348
H       0.846588   -3.309936   -2.455162
H       1.887114   -2.240851   -1.460281
H      -1.039869   -2.977975   -0.849054
H      -0.116728   -3.112384    1.508911
H      -0.279870   -0.547374    2.231602
