18

C       0.067300    1.455294   -0.291801
N       0.071960    0.015678   -0.034351
C      -1.028650   -0.515376    0.827235
C      -0.130990   -1.722990    1.271459
O       0.045757   -2.913277    0.617617
C      -0.429976   -1.556360    2.760425
C      -0.365092   -0.106025    2.208721
O      -0.455803    1.074865    2.915156
C       0.781156   -0.444565    1.198192
H       1.044447    1.749073   -0.690177
H      -0.682037    1.676981   -1.059677
H      -0.146547    2.068576    0.595279
H      -2.080653   -0.519651    0.535217
H       0.225753   -2.695899   -0.306878
H      -1.406876   -1.911642    3.103748
H       0.362488   -1.848527    3.455177
H      -1.281153    1.072684    3.413042
H       1.859433   -0.366777    1.346125
