19

C       0.135020    1.522729    0.139280
C       0.044685    0.001541    0.221846
O       0.301437   -0.453898    1.558681
C      -1.303388   -0.535149   -0.291693
C      -1.380163   -2.030008   -0.367484
C      -1.960765   -2.875484   -1.296012
C      -1.715832   -4.174682   -0.804266
N      -1.034458   -4.152888    0.338247
N      -0.851164   -2.842241    0.584400
H       1.086856    1.868133    0.550973
H       0.058826    1.866792   -0.896719
H      -0.677692    1.993668    0.706803
H       0.850551   -0.445093   -0.370853
H      -0.302656    0.013644    2.147477
H      -2.096909   -0.138843    0.361133
H      -1.500365   -0.125834   -1.288005
H      -2.483332   -2.588046   -2.194513
H      -2.005236   -5.121804   -1.236001
H      -0.308555   -2.528371    1.374581
