21

C       0.064469    1.389381   -0.060001
O       0.030632   -0.015588   -0.068604
C      -1.276050   -0.535416    0.064668
C      -1.188271   -2.056899    0.055457
C      -2.546143   -2.780012    0.050878
C      -2.344050   -4.287970   -0.151056
C      -3.362082   -2.512095    1.324669
H       1.108525    1.694489   -0.167487
H      -0.517636    1.819703   -0.891285
H      -0.330940    1.804745    0.881319
H      -1.734005   -0.166247    0.997373
H      -1.913625   -0.183328   -0.766519
H      -0.617675   -2.347614   -0.834723
H      -0.597727   -2.382050    0.922022
H      -3.124520   -2.402686   -0.805498
H      -1.768059   -4.719298    0.676473
H      -3.303462   -4.813918   -0.196402
H      -1.800488   -4.497415   -1.078199
H      -3.594941   -1.450704    1.451396
H      -4.312006   -3.056597    1.302012
H      -2.812966   -2.841467    2.215209
