20

C      -0.157975    1.484661   -0.088151
C       0.036512   -0.019599   -0.005337
O       0.642686   -0.461937   -1.202775
C       0.878517   -1.850850   -1.230419
C       1.538134   -2.214073   -2.542331
C       2.758472   -1.407528   -2.922264
C       1.354864   -3.580724   -3.050591
O       0.626414   -2.491402   -3.616962
H       0.803727    1.989407   -0.217088
H      -0.796443    1.741629   -0.937942
H      -0.627499    1.859274    0.826291
H       0.669481   -0.282697    0.859891
H      -0.931590   -0.528274    0.139552
H       1.535688   -2.145680   -0.392183
H      -0.063668   -2.412486   -1.130992
H       3.550801   -1.528069   -2.175237
H       3.140105   -1.729478   -3.893904
H       2.503869   -0.346411   -2.973922
H       2.121978   -4.018722   -3.688405
H       0.759818   -4.300508   -2.488132
