17

C      -0.135354    1.452243    0.040436
N       0.020475    0.013504   -0.002586
C       0.058255   -0.784622   -1.145003
N      -0.051461   -0.171573   -2.414592
C       0.238186   -2.091468   -0.746178
C       0.298455   -2.093862    0.677758
O       0.528688   -3.134622    1.558494
C       0.155547   -0.793076    1.091905
O       0.150101   -0.248447    2.336860
H       0.669320    1.906940    0.625335
H      -0.097929    1.817119   -0.985758
H      -1.091770    1.735520    0.493119
H       0.697330   -0.458128   -3.034527
H      -0.929844   -0.387107   -2.875361
H       0.320567   -2.947240   -1.399211
H      -0.157901   -3.798547    1.437105
H       0.293904   -0.979991    2.949201
