16

C       0.034237    1.400552    0.128427
N       0.037585   -0.050536    0.119989
C      -1.084505   -0.663221   -0.030003
C      -2.412864   -0.067064   -0.199181
N      -3.539104   -0.703940   -0.349658
N      -3.481084   -2.034953   -0.350402
C      -2.318112   -2.756434   -0.203501
C      -1.128025   -2.123897   -0.044742
O       0.052230   -2.765297    0.104794
H       1.058893    1.757732    0.263340
H      -0.344001    1.833787   -0.811321
H      -0.571587    1.822865    0.946056
H      -2.507302    1.011924   -0.204830
H      -4.366205   -2.497072   -0.468114
H      -2.426043   -3.834945   -0.224286
H      -0.092612   -3.717938    0.080141
