21

C      -1.253591    0.984763    0.304057
C      -0.341726   -0.221356    0.137730
C       0.676437   -0.198523   -1.025296
O       1.251339    1.110100   -1.260539
C       2.451234    0.760458   -0.529372
C       1.839342   -0.564624   -0.063005
C       0.852160   -0.494478    1.141628
C       1.112571    0.530397    2.236053
O       0.798480   -1.804680    1.696041
H      -0.687260    1.915673    0.222089
H      -2.022036    0.997988   -0.476540
H      -1.766959    0.972037    1.271619
H      -0.924641   -1.147554    0.082980
H       0.429937   -0.711755   -1.958714
H       3.303476    0.632608   -1.209731
H       2.714239    1.506095    0.229155
H       2.434364   -1.474136   -0.110205
H       1.159708    1.551291    1.849190
H       0.304835    0.503615    2.977923
H       2.051234    0.304373    2.751457
H       0.084961   -1.821546    2.343998
