22

C       0.061956    1.569648   -0.149896
C      -0.050956    0.045086    0.030069
C       0.658573   -0.479442    1.257196
C      -0.013774   -0.896323    2.334071
C       0.621859   -1.446505    3.585007
C       2.099633   -1.806296    3.376297
C       2.815914   -0.706933    2.585130
C       2.171933   -0.521429    1.204434
H       1.103839    1.893546   -0.237433
H      -0.460809    1.894189   -1.055329
H      -0.379039    2.094002    0.703760
H      -1.110353   -0.230426    0.078833
H       0.357542   -0.446838   -0.864404
H      -1.101765   -0.844108    2.326718
H       0.525883   -0.710964    4.398737
H       0.062612   -2.327310    3.926280
H       2.590118   -1.974145    4.341237
H       2.166818   -2.750097    2.819375
H       2.753552    0.236892    3.142727
H       3.881321   -0.937607    2.475901
H       2.479209   -1.339500    0.534251
H       2.555058    0.392779    0.734083
