19

C       0.057279    1.534147    0.015188
C       0.097092    0.024031   -0.009058
N      -0.809254   -0.733119    0.893361
C       0.634631   -0.743015    1.156238
C       1.322982   -2.078379    0.918182
C       1.777435   -2.177596   -0.533148
O       0.729594   -1.849234   -1.457208
C       0.188994   -0.598779   -1.372764
N      -0.273574   -0.000139   -2.387749
H       0.955423    1.959741   -0.442460
H      -0.801930    1.900661   -0.551424
H      -0.008236    1.898027    1.046055
H      -1.281674   -0.073991    1.508370
H       0.998107   -0.147668    1.990705
H       2.195987   -2.188327    1.570352
H       0.624788   -2.887887    1.150448
H       2.631584   -1.510107   -0.713722
H       2.080878   -3.193446   -0.795803
H      -0.138601   -0.576473   -3.221263
