16

C       0.023538    1.481362   -0.121029
C       0.029944   -0.018087    0.053627
N       1.146943   -0.603061    0.209091
N      -1.226964   -0.677921    0.021234
C      -1.281119   -2.136706    0.059451
C      -0.940987   -2.699297    1.371950
N      -0.668534   -3.157555    2.396468
C      -2.448250   -0.023926   -0.093833
O      -3.512921   -0.591097   -0.154837
H       1.062102    1.808237   -0.110229
H      -0.438314    1.784844   -1.065759
H      -0.509890    1.982833    0.692890
H       1.078241   -1.608097    0.357520
H      -2.309045   -2.411573   -0.190358
H      -0.612796   -2.559107   -0.697990
H      -2.351072    1.068175   -0.126335
