18

O      -0.119227    1.478958   -0.087562
C       0.040949    0.063899    0.014816
C      -1.363554   -0.515774    0.106466
O      -2.112220   -0.084674   -1.012951
C      -1.572784   -2.003645    0.291062
C      -1.576648   -2.319790    1.754241
C      -1.377534   -1.041976    2.551817
C      -2.194393   -0.402361    1.416954
N      -2.824861   -1.804870    1.099696
H       0.710839    1.865106   -0.379659
H       0.526082   -0.347332   -0.882301
H       0.649558   -0.204764    0.887585
H      -1.903776    0.853780   -1.110054
H      -1.515933   -2.767124   -0.476745
H      -1.514894   -3.343810    2.106506
H      -1.956039   -1.080806    3.478891
H      -0.371149   -0.669366    2.767329
H      -2.844643    0.455917    1.570428
