16

N       0.328801    1.134415    0.424642
C       0.028018   -0.183677   -0.074633
C      -1.461676   -0.585889   -0.248732
O      -1.203576   -0.947783   -1.644414
C       0.103506   -0.514620   -1.580634
O       0.882430   -0.429263   -2.473255
C      -1.967434   -1.738398    0.572019
C      -2.450280   -2.982689   -0.039119
O      -1.153883   -2.908938    0.565009
H       1.325354    1.235489    0.583503
H       0.063735    1.851131   -0.244377
H       0.568273   -0.934375    0.507779
H      -2.149753    0.263902   -0.202246
H      -2.346742   -1.450287    1.553664
H      -3.178028   -3.593120    0.492505
H      -2.447462   -3.070817   -1.122194
