18

C      -0.022286    1.514647    0.023315
C       0.030768   -0.014100   -0.047402
C       0.743118   -0.495448   -1.299525
O       0.739441   -1.938130   -1.272362
C       1.315589   -2.576043   -2.279663
C       1.455918   -3.916834   -2.505162
C       2.152594   -3.946852   -3.735894
N       2.414990   -2.756019   -4.220171
O       1.867906   -1.863218   -3.268073
H       0.982853    1.949598    0.035886
H      -0.556215    1.936450   -0.834971
H      -0.537919    1.842946    0.929639
H       0.548277   -0.418344    0.829763
H      -0.982321   -0.431433   -0.036055
H       0.237090   -0.151715   -2.208927
H       1.778963   -0.139245   -1.336588
H       1.114926   -4.729030   -1.888650
H       2.479233   -4.810962   -4.298615
