15

N      -0.480347    1.218635    0.409688
C      -0.210817   -0.122833    0.118156
C      -1.074326   -1.092844   -0.324541
N      -0.332448   -2.260528   -0.398602
C       0.924975   -1.944868    0.003197
N       1.030617   -0.671919    0.325011
O      -2.381354   -1.063172   -0.718515
C      -3.313414   -0.908937    0.273558
N      -4.527585   -0.824624   -0.039358
H       0.387015    1.729414    0.519472
H      -1.055574    1.665913   -0.293854
H      -0.672546   -3.146286   -0.733886
H       1.722001   -2.671407    0.039676
H      -2.858764   -0.870991    1.269812
H      -5.096524   -0.714144    0.797465
