19

C       0.294944    1.652460   -0.085849
C       0.036507    0.141616   -0.047483
C       0.609123   -0.557076   -1.280217
O      -0.014312   -0.012199   -2.433169
C       0.591475   -0.502236    1.229938
C      -0.185990   -0.086735    2.479879
N       0.543277   -0.079775    3.634293
O      -1.371757    0.181431    2.462059
H       1.369780    1.869131   -0.030739
H      -0.085651    2.077889   -1.016508
H      -0.199210    2.152119    0.751586
H      -1.046675   -0.022251   -0.045906
H       1.703104   -0.413081   -1.315929
H       0.424414   -1.641666   -1.207557
H       0.389805   -0.407313   -3.210640
H       0.512978   -1.596450    1.164286
H       1.658903   -0.274795    1.348899
H       1.534778   -0.238115    3.647912
H       0.079291    0.177104    4.490086
