21

C       0.080544    1.517492    0.178436
C      -0.099094    0.013643   -0.074226
C       0.642235   -0.464351   -1.293588
C       0.194199   -0.167979   -2.738784
C       0.495151   -1.654028   -3.064458
O       0.233128   -2.345140   -4.009488
C       0.992915   -1.941992   -1.684516
C       2.060692   -0.925037   -1.274990
C       3.185694   -0.453551   -2.175000
H       1.134712    1.767220    0.336791
H      -0.276703    2.106628   -0.672695
H      -0.478982    1.835622    1.063176
H       0.247680   -0.549827    0.800829
H      -1.167537   -0.213022   -0.185722
H      -0.883097    0.009366   -2.822776
H       0.724290    0.607557   -3.297884
H       0.862699   -2.869640   -1.138811
H       2.398945   -1.139926   -0.261271
H       2.857674   -0.273148   -3.201317
H       3.621827    0.476510   -1.794010
H       3.982017   -1.203898   -2.213398
