16

C      -0.172319    1.459836   -0.167199
C      -0.034847   -0.036473   -0.015115
O      -0.038235   -0.602491    1.052694
C       0.115251   -0.834965   -1.324411
C       0.671539   -2.230193   -1.080305
O       0.822349   -2.831165   -2.358443
C      -1.249703   -0.907821   -2.016241
O      -1.787764    0.025592   -2.551577
H       0.794994    1.878122   -0.471613
H      -0.884658    1.696982   -0.963085
H      -0.474680    1.907444    0.780195
H       0.770239   -0.273328   -2.000577
H       1.625255   -2.165331   -0.539541
H      -0.024807   -2.791497   -0.441374
H       1.092329   -3.745893   -2.234658
H      -1.734278   -1.905507   -1.964487
