18

C       0.155539    1.386561    0.139983
N      -0.004057   -0.049558    0.134020
C      -1.374468   -0.533582    0.258849
C      -1.214208   -1.983285    0.668679
O      -0.244556   -2.714878   -0.061693
C       0.167210   -2.131324    1.188140
C       0.843740   -0.783493    1.071740
C       0.497066   -3.100383    2.263299
O       1.206154   -2.848011    3.205224
H       1.203226    1.643225   -0.047030
H      -0.445645    1.830375   -0.660409
H      -0.145236    1.859820    1.094880
H      -1.958490   -0.023539    1.050779
H      -1.917551   -0.409256   -0.686032
H      -2.060973   -2.550965    1.045996
H       1.870927   -0.846520    0.695355
H       0.884704   -0.342125    2.084131
H       0.024970   -4.096478    2.118012
