23

C       1.369760   -0.314098   -1.201848
C       0.350992   -0.068039   -0.086981
C       0.803487   -0.601478    1.292811
C      -0.204112   -0.286094    2.426767
C      -0.405912    1.204231    2.705404
C      -1.326759    1.433203    3.904707
O       0.889694    1.757126    2.935114
C       1.047679   -2.043120    1.248763
C       1.216247   -3.233876    1.220231
H       1.562362   -1.383052   -1.329268
H       1.009690    0.083674   -2.155723
H       2.325036    0.173175   -0.976791
H       0.171035    1.008031    0.005709
H      -0.608586   -0.531404   -0.348375
H       1.744205   -0.099857    1.551931
H      -1.173914   -0.738364    2.189176
H       0.153164   -0.762592    3.346472
H      -0.861110    1.680174    1.821964
H      -2.317315    1.000587    3.729944
H      -0.900777    0.978950    4.804818
H      -1.462149    2.504638    4.093227
H       0.786243    2.695408    3.121260
H       1.383171   -4.282071    1.196329
