15

N       0.043291    1.370550    0.148400
C       0.021638   -0.008882    0.055963
N      -1.103043   -0.709332    0.033523
N      -0.625812   -1.996824    0.013605
C       0.712162   -1.977145    0.015067
N       1.517222   -3.100246   -0.006406
C       1.084408   -4.399563   -0.033691
N      -0.154614   -4.709544   -0.049088
N       1.177992   -0.738977    0.041050
H       0.866790    1.778193   -0.269885
H      -0.810371    1.802232   -0.175507
H      -1.207483   -2.821664   -0.006373
H       2.505351   -2.907981    0.011060
H       1.917797   -5.108627   -0.040936
H      -0.274381   -5.717949   -0.069127
