20

O      -0.115098    1.441820    0.010534
C       0.022389    0.028218    0.002033
C      -1.377423   -0.575687    0.011526
C      -1.379370   -2.083969    0.004112
C      -0.764670   -3.052775    1.069561
C      -1.407648   -3.971735   -0.005015
C      -2.631431   -3.014461    0.009019
C      -0.780972   -3.042159   -1.080076
H       0.764958    1.829132    0.004241
H       0.569127   -0.313481   -0.891512
H       0.585105   -0.322588    0.882036
H      -1.909082   -0.207920    0.898026
H      -1.924783   -0.199240   -0.861674
H       0.326605   -3.076329    1.145934
H      -1.232684   -3.049208    2.058720
H      -1.425073   -5.061989   -0.010266
H      -3.241232   -3.006478    0.917615
H      -3.254986   -2.997496   -0.890071
H      -1.263903   -3.028864   -2.061955
H       0.309023   -3.064870   -1.173183
