18

C      -0.222754    1.364988   -0.027292
N       0.040767   -0.056623    0.052209
C       0.706166   -0.625274    1.076018
C       1.358032   -0.058575    2.126914
C       1.884734   -1.088476    3.013017
O       2.551789   -0.946186    4.017041
C       1.411365   -2.455521    2.466784
C       0.801743   -2.146621    1.093225
O      -0.442041   -2.767121    0.781538
H       0.717591    1.926323   -0.040697
H      -0.761694    1.579930   -0.951729
H      -0.820982    1.723371    0.821718
H      -0.537660   -0.685198   -0.484352
H       1.480408    0.997777    2.322998
H       2.233979   -3.173157    2.435746
H       0.652990   -2.865845    3.144329
H       1.468234   -2.467975    0.284673
H      -1.039600   -2.613913    1.522787
