15

O       0.030060   -0.000883   -0.024542
C       0.002825    1.200522    0.011885
C      -1.268210    2.060028    0.062662
C      -0.873207    3.364774    0.751346
O      -0.110853    3.010679    1.952352
C       1.094259    3.152659    1.201032
C       0.429843    3.969154    0.096272
O       0.952206    3.157951   -0.958352
C       1.232906    2.105083    0.018767
H      -1.632738    2.237576   -0.955325
H      -2.042211    1.527758    0.620372
H      -1.704247    4.032895    0.982110
H       1.975529    3.390606    1.795803
H       0.487047    5.042202   -0.084604
H       2.175021    1.588785   -0.164082
