17

C      -0.003457    1.634915    0.029452
C      -0.024444    0.103099    0.008902
C       0.666758   -0.485921    1.268693
O       2.016282   -0.103383    1.362428
O      -1.355624   -0.412508    0.066871
C      -2.157584   -0.274472   -1.021175
N      -3.386632   -0.519916   -0.908141
C       0.699672   -0.408233   -1.178379
N       1.309185   -0.816992   -2.071649
H       1.022666    1.981904    0.165695
H      -0.403969    2.056581   -0.895306
H      -0.613567    1.978131    0.869041
H       0.150605   -0.080376    2.143034
H       0.527274   -1.573967    1.260981
H       2.523025   -0.605111    0.713868
H      -1.624201    0.022155   -1.931723
H      -3.849954   -0.411848   -1.808223
