23

C       0.236686    1.778389   -0.161658
C       0.047769    0.257333   -0.152364
C       0.930221   -0.450579   -1.178931
C       2.489629   -0.510926   -1.000847
C       2.430508   -2.028267   -1.242692
O       3.291034   -2.687569   -2.109048
C       1.609841   -2.743575   -0.210879
C       1.584897   -2.479871    1.282112
C       0.905977   -1.980543   -1.325903
H       1.269521    2.052089    0.080780
H       0.007848    2.199216   -1.147339
H      -0.415881    2.267014    0.568637
H       0.240019   -0.128846    0.853557
H      -1.001447    0.018119   -0.371786
H       0.720424   -0.012717   -2.162265
H       3.025624    0.006556   -1.798758
H       2.895325   -0.182280   -0.037334
H       4.023866   -3.043517   -1.595010
H       1.576883   -3.806850   -0.448492
H       1.825746   -1.444766    1.533438
H       0.602367   -2.706033    1.710967
H       2.318928   -3.115079    1.791555
H       0.252409   -2.514650   -2.006863
