16

N      -0.035260    1.064704    0.635079
C       0.008220   -0.048372    0.040156
O       1.111889   -0.611132   -0.513295
C       0.827087   -1.911178   -1.066412
C      -0.559305   -2.318313   -0.545851
N      -0.506166   -3.141575    0.676918
C      -1.173824   -2.505023    1.562654
N      -1.793142   -1.321795    1.185013
C      -1.192454   -0.975729   -0.105286
H       0.883477    1.510158    0.653848
H       0.852755   -1.833816   -2.158698
H       1.602865   -2.602211   -0.731306
H      -1.124201   -2.850046   -1.316966
H      -1.316168   -2.870946    2.575537
H      -1.843390   -0.568532    1.860425
H      -1.927739   -0.553547   -0.792872
