22

C      -0.345536    1.584169   -0.421874
C      -0.015497    0.201789    0.137246
N      -1.225592   -0.611939    0.204020
C      -1.546759   -1.465319   -0.939665
C      -1.150185   -2.065075    0.367251
C       0.175667   -2.788941    0.498011
C      -2.252557   -2.602643    1.286398
C      -2.631209   -3.982272    0.998864
C      -2.931786   -5.118839    0.746896
H       0.547261    2.216930   -0.441424
H      -0.729613    1.508487   -1.444506
H      -1.109097    2.073415    0.189070
H       0.778192   -0.258083   -0.474082
H       0.380679    0.297004    1.155519
H      -2.584284   -1.467542   -1.265471
H      -0.819202   -1.522301   -1.749376
H       0.912192   -2.447098   -0.231309
H       0.598499   -2.653536    1.500847
H       0.024583   -3.861655    0.345680
H      -1.915975   -2.524880    2.329475
H      -3.123369   -1.944936    1.195966
H      -3.206253   -6.121196    0.529822
