18

C       0.326359    1.454073   -0.296451
C       0.023845   -0.021147   -0.033133
O       0.559507   -0.836704   -1.086649
C       1.428824   -1.850737   -0.560113
C       2.792820   -1.705584   -1.244104
O       2.657834   -1.755983   -2.648540
C       1.431183   -1.612066    0.922970
C       0.647973   -0.581631    1.218341
H       1.405246    1.634467   -0.289913
H      -0.072635    1.751522   -1.270359
H      -0.138541    2.083449    0.469825
H      -1.070743   -0.155504   -0.016322
H       1.016064   -2.837379   -0.825395
H       3.256438   -0.762506   -0.911421
H       3.453076   -2.530006   -0.951823
H       1.955911   -1.128530   -2.861715
H       2.006119   -2.213068    1.616194
H       0.453254   -0.172715    2.202047
