17

C       0.394020    0.813489    0.529249
N      -0.180781    0.100730   -0.621772
C      -1.390613   -0.572561   -0.383697
C      -2.699696   -0.199752   -0.510848
C      -3.514813   -1.323891   -0.143296
C      -2.686349   -2.345129    0.210661
N      -1.375669   -1.906313    0.055851
C      -0.243749   -2.700994    0.210475
O      -0.276093   -3.843122    0.593258
H       1.327858    1.291178    0.220397
H      -0.276926    1.577131    0.949171
H       0.628261    0.097832    1.322265
H      -0.287100    0.730765   -1.406812
H      -3.045822    0.773408   -0.825812
H      -4.593652   -1.355770   -0.135564
H      -2.868837   -3.350446    0.549199
H       0.672097   -2.158664   -0.069650
