15

O       0.010473    1.443394    0.037255
C       0.026974    0.044238    0.002976
C       0.875265   -0.554041    1.144171
C       2.234308   -0.017686    1.141165
N       3.293627    0.443155    1.137431
C      -1.387573   -0.556054   -0.142156
O      -1.013259   -1.146557   -1.427161
C       0.243560   -0.584802   -1.374514
N       1.195406   -0.577799   -2.184731
H       0.879285    1.760205   -0.242796
H       0.403677   -0.297143    2.099370
H       0.911657   -1.645735    1.067969
H      -1.679582   -1.326178    0.575308
H      -2.169388    0.195566   -0.260637
H       0.980723   -1.082026   -3.046347
