19

C      -0.047593    1.541433    0.030604
C       0.006636    0.006558   -0.029608
C      -1.413640   -0.588220    0.001786
C       0.856469   -0.535129   -1.211482
N       1.960946   -1.349507   -0.680844
C       1.905932   -1.351764    0.600595
N       2.721611   -2.021677    1.455869
C       0.787284   -0.527095    1.170747
O       0.586598   -0.330453    2.345899
H       0.955304    1.978312   -0.015711
H      -0.627897    1.938357   -0.808545
H      -0.516458    1.868512    0.963509
H      -1.999846   -0.217951   -0.845342
H      -1.389842   -1.681323   -0.055864
H      -1.924709   -0.307335    0.927614
H       0.260029   -1.149559   -1.896680
H       1.276033    0.279977   -1.813851
H       3.599251   -2.371997    1.108981
H       2.681612   -1.731567    2.420462
