25

C       0.654575   -0.423022    1.318757
C       0.025059   -0.081789   -0.044414
C       0.981624   -0.477171   -1.178127
C      -1.389611   -0.681050   -0.160451
C      -1.852405   -1.387577   -1.415123
C      -1.535988   -2.182596   -0.173161
C      -2.461802    0.124129    0.599821
C      -2.800569    1.452835   -0.082043
O      -3.655811   -0.621932    0.829223
H       1.609221    0.098194    1.446367
H       0.008536   -0.139827    2.154880
H       0.846730   -1.498159    1.400541
H      -0.076384    1.010504   -0.090682
H       1.116875   -1.563069   -1.237631
H       0.628250   -0.125152   -2.151151
H       1.969081   -0.037284   -1.004860
H      -2.897146   -1.294277   -1.697710
H      -1.182968   -1.462921   -2.263003
H      -0.632232   -2.783223   -0.177893
H      -2.364614   -2.605600    0.380384
H      -2.080194    0.331742    1.606694
H      -3.191649    1.275737   -1.091641
H      -3.560958    1.985329    0.496241
H      -1.927644    2.103847   -0.178038
H      -4.187433   -0.585691    0.027190
