20

C      -0.209242    1.610988   -0.042083
C       0.012043    0.108570    0.016802
C       1.199356   -0.600973   -0.687730
C       2.153785   -0.054619    0.412523
O       3.371255   -0.710758    0.633665
C       3.193801   -2.038402    1.108522
C       2.026758   -2.711109    0.388541
N       0.882495   -1.800705    0.200620
C       0.858063   -0.575611    1.123561
H       0.695837    2.199771    0.124423
H      -0.612357    1.894911   -1.020124
H      -0.943105    1.914890    0.712186
H      -0.916715   -0.443314   -0.148391
H       1.386071   -0.728448   -1.756667
H       2.372838    1.014534    0.424827
H       4.139190   -2.566118    0.953477
H       2.995543   -2.012684    2.191355
H       2.327508   -3.065574   -0.604762
H       1.691335   -3.585915    0.958083
H       0.629911   -0.657202    2.188270
