19

C      -0.070547    1.503821   -0.088967
C       0.018037    0.006435   -0.039321
C       0.861955   -0.888020   -0.953546
C       0.029152   -2.077651   -0.403188
C       0.486775   -2.189899    1.073039
C      -0.170490   -0.828708    1.275200
C      -0.574721   -0.234357    2.547886
O      -0.291158   -0.697503    3.630334
C      -1.064382   -1.020380    0.032876
H       0.853983    1.970768    0.268352
H      -0.236878    1.838024   -1.119135
H      -0.895214    1.889579    0.517336
H       0.633780   -0.676888   -2.002644
H       1.947752   -0.921301   -0.808645
H      -0.150281   -2.962892   -1.008539
H      -0.056193   -2.959765    1.626326
H       1.560783   -2.291001    1.260207
H      -1.191977    0.689559    2.468788
H      -2.141224   -0.963637   -0.046057
