20

C       0.044126    1.373867   -0.104617
O      -0.018612   -0.022917    0.085428
C      -1.315214   -0.584200    0.025373
C      -1.842108   -0.687539   -1.407164
C      -1.219565   -1.964078    0.739714
C      -0.807294   -1.796953    2.204633
O      -2.489783   -2.604170    0.748545
C      -0.236408   -2.819733    0.032617
N       0.483948   -3.517593   -0.541501
H       1.078968    1.671903    0.077758
H      -0.229027    1.673053   -1.125853
H      -0.610557    1.906911    0.601693
H      -2.015958    0.014425    0.629968
H      -1.189087   -1.319948   -2.016326
H      -2.857131   -1.095017   -1.418505
H      -1.891039    0.300311   -1.871843
H      -1.592341   -1.241601    2.725208
H      -0.698789   -2.774390    2.678261
H       0.131719   -1.248007    2.270951
H      -2.678981   -2.934828   -0.136152
