23

C      -1.388324   -0.029848   -0.101466
C       0.131296   -0.087835    0.079025
O       0.459026   -0.782213    1.280484
C       0.860702   -0.668557   -1.143618
C       2.211549   -1.295789   -0.906692
C       1.018918   -2.165881   -1.229326
C       0.638041    0.091273   -2.461646
C       1.075121    1.557195   -2.389434
O       1.263485   -0.555863   -3.567592
H      -1.682841    0.639529   -0.914825
H      -1.788258   -1.025326   -0.330551
H      -1.855003    0.329327    0.819928
H       0.506207    0.927309    0.255509
H      -0.046461   -1.601779    1.293887
H       2.980684   -1.196724   -1.665575
H       2.575237   -1.304536    0.113194
H       0.619851   -2.785938   -0.433360
H       0.974879   -2.607146   -2.217180
H      -0.429719    0.051541   -2.707668
H       0.953596    2.026255   -3.369728
H       0.488277    2.128364   -1.664354
H       2.129150    1.631822   -2.094719
H       2.203221   -0.347610   -3.537354
