17

C      -0.121238    1.419822   -0.053921
N      -0.253471   -0.030457    0.006728
C       0.267068   -0.647531    1.218361
C      -0.064745   -0.686170   -1.188291
N       0.127602   -0.099941   -2.336560
N       0.153033   -1.154019   -3.243954
C       0.013938   -2.392889   -2.677814
O       0.001418   -3.496258   -3.179522
N      -0.116687   -2.057226   -1.316671
H       0.924874    1.744081   -0.157429
H      -0.677665    1.795399   -0.913052
H      -0.535822    1.846532    0.863043
H      -0.044239   -1.692288    1.291903
H       1.365881   -0.607685    1.284282
H      -0.148872   -0.123978    2.082790
H       0.302567   -0.971479   -4.219319
H      -0.331539   -2.741406   -0.614424
