16

C      -0.307188    1.571629   -0.420928
C       0.073033    0.101301   -0.139357
C      -1.089811   -0.660773    0.317924
N      -2.009495   -1.261755    0.676513
C       0.729172   -0.537235   -1.362927
C       0.324927   -1.843734   -1.931021
O      -0.046740   -0.625290   -2.561372
C       2.151816   -0.125987   -1.615340
O       2.844217    0.440802   -0.809928
H       0.591325    2.139661   -0.671106
H      -1.010914    1.626954   -1.254255
H      -0.768867    2.021809    0.460193
H       0.824856    0.080717    0.658218
H       1.053959   -2.446178   -2.471279
H      -0.478312   -2.386722   -1.439131
H       2.510010   -0.396409   -2.631743
