19

C       0.152336    1.508873    0.031427
O       1.561129    1.410050   -0.318523
C       1.528304    0.001683   -0.078133
C       0.044015   -0.002255    0.205217
C       0.592625   -0.692913   -1.037526
C       0.355150   -0.241391   -2.484450
C       0.541259   -1.525156   -3.343636
C       0.572144   -2.640638   -2.324739
C       0.606373   -2.179855   -1.074200
H       0.032613    2.066674    0.966862
H      -0.442688    1.980217   -0.759716
H       2.384364   -0.451579    0.410016
H      -0.535870   -0.517929    0.959662
H      -0.665569    0.140326   -2.595146
H       1.034498    0.565320   -2.767814
H      -0.261488   -1.650960   -4.079217
H       1.476893   -1.500352   -3.918650
H       0.597551   -3.688316   -2.602717
H       0.660368   -2.787184   -0.176996
