19

C      -0.338117    1.460935    0.273307
N       0.087085    0.092226   -0.004456
C      -1.024885   -0.832509   -0.288465
C      -1.451800   -1.440337    1.076350
C      -0.143599   -1.502006    1.849003
O       0.706850   -2.627848    1.444475
C       1.575631   -1.799414    0.759705
N       2.619889   -2.063123    0.121022
C       0.811816   -0.518051    1.092632
H       0.541856    2.080295    0.469247
H      -0.840064    1.867777   -0.609167
H      -1.024761    1.563385    1.133188
H      -1.834477   -0.312488   -0.804142
H      -0.665175   -1.627005   -0.951677
H      -2.147171   -0.775891    1.601076
H      -1.925156   -2.420665    0.982801
H      -0.225652   -1.462264    2.935440
H       2.816773   -3.065899    0.127599
H       1.384576    0.210585    1.665886
