19

C       0.223054    1.414503    0.100085
N      -0.102060    0.017574   -0.141399
C       0.441025   -0.587681   -1.102608
C       0.192202   -2.030124   -1.487905
C       1.418280   -2.374886   -2.344007
C       1.810233   -1.005495   -2.936033
C       1.184231   -0.704231   -4.293582
O       1.356190   -0.038186   -1.965222
H       1.142582    1.753408   -0.391026
H      -0.602341    2.049526   -0.246234
H       0.315337    1.576029    1.179147
H       0.065830   -2.655438   -0.604143
H      -0.734896   -2.092671   -2.069002
H       2.227368   -2.756555   -1.714385
H       1.217233   -3.116103   -3.120396
H       2.896538   -0.887916   -2.999492
H       0.100233   -0.857587   -4.272848
H       1.376787    0.333151   -4.579724
H       1.609264   -1.359516   -5.060807
