23

C      -0.446445    1.297707   -0.505570
C       0.293397   -0.024388   -0.378506
C       1.834508   -0.058291   -0.577088
C       1.919919   -1.109659    0.559454
C       0.501796   -0.671715    1.020118
C       0.445053    0.173582    2.325173
C      -0.042764   -1.102940    3.059420
O      -0.975767   -1.005483    4.105254
C      -0.458131   -1.687066    1.684048
H       0.005748    2.070704    0.125344
H      -0.424963    1.660006   -1.539429
H      -1.499086    1.201638   -0.213989
H      -0.172388   -0.769560   -1.036516
H       2.216616   -0.338086   -1.561915
H       2.293039    0.891986   -0.284609
H       1.918254   -2.132771    0.169452
H       2.736860   -1.014535    1.280398
H       1.358212    0.661635    2.676680
H      -0.359120    0.918376    2.285999
H       0.802493   -1.658498    3.475799
H      -1.740685   -0.522426    3.774871
H      -1.505712   -1.443644    1.462893
H      -0.298244   -2.752674    1.497104
