18

C      -0.165181    1.652895    0.116354
C       0.113587    0.159022    0.005390
N       1.135464   -0.172964   -0.997486
C       1.683006   -1.508150   -0.718762
C       3.041687   -1.753658   -1.363285
C       1.715381   -1.529748    0.804464
O       2.370651   -2.233855    1.522023
C       0.699094   -0.450113    1.273412
O       0.438580   -0.181321    2.413549
H       0.768485    2.200165    0.269564
H      -0.641884    2.030984   -0.792970
H      -0.829556    1.843749    0.963230
H      -0.842975   -0.377272   -0.166543
H       0.783268   -0.093476   -1.943789
H       0.989166   -2.323508   -1.011938
H       3.734760   -0.950818   -1.099073
H       3.451818   -2.704200   -1.012171
H       2.956901   -1.791877   -2.453431
