16

C      -0.097196    1.461390    0.045955
O       0.001128    0.063657   -0.195900
C      -1.186472   -0.642376    0.015979
C      -1.076773   -2.052871   -0.595828
N      -1.846787   -2.885779    0.319491
C      -2.093939   -2.360465    1.556726
O      -2.624062   -2.897870    2.499059
C      -1.543278   -0.917101    1.485518
O      -1.404421   -0.180546    2.422517
H       0.874157    1.888719   -0.210856
H      -0.868512    1.916660   -0.593988
H      -0.328329    1.674099    1.093604
H      -2.051798   -0.116836   -0.427823
H      -1.480950   -2.101995   -1.610212
H      -0.018820   -2.339001   -0.629448
H      -2.064271   -3.850787    0.122499
