17

O       0.106767    1.400165   -0.092642
C       0.052171   -0.001310    0.004881
C       0.662904   -0.603717    1.318230
C      -0.535501   -1.381516    1.941475
C      -1.221508   -1.943873    0.677790
C      -1.391626   -0.550631    0.068382
O      -2.042343    0.191253    1.142169
C      -1.544499   -0.309221    2.329754
O      -1.874304    0.115143    3.395272
H      -0.565633    1.753722    0.503728
H       0.566429   -0.386997   -0.880009
H       1.484067   -1.292406    1.103401
H       1.045303    0.188008    1.965886
H      -0.294819   -2.057654    2.758234
H      -0.577728   -2.598271    0.084569
H      -2.174486   -2.441949    0.871814
H      -1.992723   -0.432930   -0.831139
