21

C      -0.016073    1.551670    0.014060
C      -0.004850    0.035589   -0.015244
C       0.276306   -0.694682   -1.357372
C      -0.697434   -1.809758   -0.907601
C      -0.033206   -2.778446    0.098753
C      -0.050383   -1.912116    1.376688
C       0.789620   -0.639233    1.136340
O      -1.389750   -1.392885    1.372354
C      -1.346319   -0.788756    0.096114
H       0.994332    1.959865   -0.108766
H      -0.636269    1.960683   -0.791381
H      -0.410506    1.925179    0.965837
H      -0.115322   -0.131062   -2.210444
H       1.311279   -0.981489   -1.571067
H      -1.312903   -2.301992   -1.660685
H      -0.645885   -3.671066    0.251621
H       0.970581   -3.090232   -0.204159
H       0.136062   -2.437551    2.313556
H       1.831095   -0.845268    0.872213
H       0.776022   -0.014626    2.034692
H      -2.291536   -0.307581   -0.149469
