21

C      -0.401372    1.304033    0.225982
C      -0.206107   -0.198143    0.000691
C       0.705409   -0.584458   -1.174713
C       0.913952   -2.099588   -1.225730
N       0.084494   -0.150797   -2.438282
C       0.371437    1.175454   -2.943041
C       0.918377   -0.033702   -3.641822
C       2.343340   -0.264350   -3.599073
N       3.481254   -0.473969   -3.582437
H       0.558586    1.819499    0.343867
H      -0.939073    1.774939   -0.601627
H      -0.983345    1.481983    1.135466
H       0.228021   -0.642280    0.904415
H      -1.179389   -0.681069   -0.148057
H       1.684863   -0.093420   -1.037484
H      -0.042742   -2.609599   -1.376211
H       1.588725   -2.384422   -2.036910
H       1.351854   -2.452899   -0.287845
H      -0.457693    1.715115   -3.392062
H       1.093703    1.790537   -2.409830
H       0.449096   -0.385555   -4.556229
