20

C       0.044398    1.475288    0.109495
C      -0.088434   -0.035177   -0.050540
C      -1.549808   -0.472706   -0.182025
C       0.750685   -0.545560   -1.223960
O       0.792078   -1.957544   -1.226975
C       1.469526   -2.433138   -0.079992
C       0.940536   -1.861027    1.220671
N       1.069914   -2.515214    2.295872
O       0.437058   -0.597707    1.190025
H       1.091409    1.760253    0.245663
H      -0.347343    1.990669   -0.772652
H      -0.518758    1.812961    0.983613
H      -2.027898    0.032633   -1.027133
H      -1.612619   -1.550861   -0.347779
H      -2.099649   -0.221757    0.728601
H       0.302264   -0.235363   -2.171894
H       1.769728   -0.128452   -1.165486
H       1.369466   -3.518031   -0.055390
H       2.543506   -2.187172   -0.145183
H       0.720833   -1.967087    3.085317
