24

C      -0.040515    1.539556    0.019371
C       0.002386   -0.004166    0.023338
C       0.689650   -0.473939    1.320009
C      -1.453622   -0.518935    0.022545
C       0.756956   -0.524188   -1.255769
C       2.199401    0.003188   -1.358756
C       0.781323   -2.059985   -1.356468
O      -0.000425   -0.004875   -2.361779
H       0.951591    1.979745    0.156670
H      -0.456200    1.916548   -0.917081
H      -0.667726    1.895467    0.843420
H       0.137478   -0.093747    2.186092
H       0.713179   -1.564484    1.405125
H       1.715796   -0.103499    1.402989
H      -1.956034   -0.268820   -0.913878
H      -1.507633   -1.602615    0.162605
H      -2.010113   -0.059507    0.846174
H       2.826677   -0.344151   -0.533219
H       2.656624   -0.362200   -2.286154
H       2.224946    1.093888   -1.384339
H      -0.227863   -2.474585   -1.380662
H       1.285554   -2.357357   -2.283801
H       1.330941   -2.519960   -0.530650
H       0.427362   -0.299585   -3.172058
