19

C      -0.052818    1.578050   -0.122543
C       0.015304    0.060600   -0.100618
C      -1.226941   -0.578256    0.495740
O      -1.327514   -0.182987    1.855981
C       0.673449   -0.768827   -1.154335
C       1.900133   -0.066303   -1.753757
C       2.500433   -0.053996   -0.320058
O       3.592346    0.204042    0.101280
C       1.288507   -0.705841    0.275265
H       0.877321    2.041559   -0.455361
H      -0.856229    1.915441   -0.788356
H      -0.272395    1.945753    0.882748
H      -2.106569   -0.246830   -0.079154
H      -1.163647   -1.673860    0.404760
H      -2.185071   -0.462401    2.189388
H       0.187580   -1.627701   -1.600919
H       2.501543   -0.722185   -2.390330
H       1.748913    0.886620   -2.266589
H       1.277735   -1.416527    1.092457
