21

C      -0.035109    1.538274   -0.002510
C       1.497014    1.782953   -0.033119
C       1.887360    1.818819   -1.525805
C       1.197343    0.607691   -2.221620
C       0.994822   -0.489081   -1.154925
C       2.343855   -0.594185   -0.395142
C       2.017371    0.455108    0.677080
O       0.827903   -0.151656    1.210527
C       0.037952    0.004827    0.019290
H      -0.512625    1.882930    0.916759
H      -0.550738    1.984864   -0.855682
H       1.816768    2.681609    0.496775
H       1.561753    2.762391   -1.975368
H       2.974216    1.776983   -1.649253
H       0.242743    0.902194   -2.669118
H       1.816499    0.224928   -3.039296
H       0.653517   -1.428915   -1.591772
H       2.496065   -1.560318    0.089917
H       3.204814   -0.381043   -1.032746
H       2.747947    0.603254    1.472400
H      -0.900456   -0.540365    0.121165
