16

N      -0.040210   -1.094510   -0.139707
C      -0.012596    0.058984   -0.055642
C       0.013276    1.499968    0.025063
N      -0.462238    2.257902   -1.167151
C       0.857944    2.947427   -1.300006
C       1.317343    2.335341    0.044146
N       0.966790    2.976810    1.367998
C      -0.365893    3.614039    1.280384
C      -0.315610    2.151459    1.396045
H      -0.720453    1.671339   -1.951687
H       1.469972    2.593578   -2.137258
H       0.782640    4.038177   -1.352548
H       2.305349    1.883548    0.095267
H      -0.598277    4.173100    2.181141
H      -0.712687    4.062970    0.356377
H      -0.614768    1.590564    2.274908
