20

C      -0.225937    1.445121    0.099342
C       0.258421   -0.011383    0.122510
C       0.794174   -0.526785   -1.209276
C       2.005920    0.212342   -1.748421
C       0.662143   -1.988099   -1.500682
N      -0.105579   -1.011931   -2.266937
C      -1.550090   -1.004648   -2.103661
H       0.582256    2.138185   -0.151856
H      -1.026320    1.589519   -0.633108
H      -0.614940    1.736608    1.079908
H       1.059541   -0.112730    0.866428
H      -0.552010   -0.657611    0.473388
H       2.829632    0.194088   -1.025139
H       2.347262   -0.249441   -2.677647
H       1.772009    1.259565   -1.965857
H       1.438190   -2.523553   -2.043944
H       0.126718   -2.593455   -0.768306
H      -1.907166   -1.252557   -1.091868
H      -1.944737   -0.019772   -2.374745
H      -1.980314   -1.738025   -2.794114
