19

C      -0.002593    1.553300    0.262119
C      -0.048681    0.025929    0.201520
C      -1.434410   -0.504725   -0.217931
O      -1.846055    0.014352   -1.481899
C      -1.472143   -1.970766   -0.197588
C      -1.455655   -3.175583   -0.222583
C      -1.508853   -4.629711   -0.203382
C      -2.729895   -5.157198    0.556344
O      -2.705803   -6.132700    1.255029
H       1.002448    1.904673    0.512674
H      -0.292013    1.985912   -0.698722
H      -0.691003    1.938703    1.022438
H       0.694335   -0.353482   -0.511984
H       0.206913   -0.409473    1.174359
H      -2.181071   -0.119856    0.488822
H      -1.313210   -0.420363   -2.157323
H      -1.587936   -5.016742   -1.231181
H      -0.611881   -5.077933    0.236244
H      -3.656863   -4.565435    0.396350
