18

C      -0.018426    1.529890    0.005486
C      -0.034084   -0.010680    0.000986
C       0.710476   -0.533667   -1.242719
O       0.840015   -1.956167   -1.233971
C       1.095188   -2.513463   -0.024425
N       1.095920   -1.978006    1.119286
C       0.728758   -0.574114    1.230508
C      -1.415748   -0.496152   -0.007026
C      -2.555451   -0.877704   -0.013758
H       1.010665    1.903171   -0.023494
H      -0.558899    1.929936   -0.857237
H      -0.498214    1.913112    0.910078
H       0.180005   -0.283627   -2.163603
H       1.712686   -0.086318   -1.276869
H       1.315180   -3.572055   -0.146470
H       1.639541    0.019467    1.387775
H       0.116870   -0.450798    2.129782
H      -3.559560   -1.223423   -0.016045
