19

C      -0.079187    1.448499    0.011394
C       1.296947    0.838433   -0.020493
C       1.957871    0.634663    1.329803
O       0.958507    0.036643    2.158016
C       0.076108   -0.726653    1.352260
C       0.264736   -2.268362    1.361540
O      -1.075851   -2.459942    1.854090
C      -1.258886   -1.043047    2.055043
C       0.076773   -0.052460   -0.002258
H      -0.410800    1.923315    0.929802
H      -0.438884    1.915508   -0.898333
H       1.919856    0.942826   -0.900504
H       2.835437   -0.023185    1.231732
H       2.274733    1.559308    1.823574
H       0.424581   -2.763419    0.395909
H       1.026394   -2.600069    2.079089
H      -1.257521   -0.767268    3.116774
H      -2.169605   -0.668184    1.574492
H      -0.239770   -0.622073   -0.867433
