11

F       0.018642    0.064783    0.003729
C      -0.016803    1.389928    0.010835
N      -1.179236    1.940022    0.029395
C      -1.274547    3.321023    0.037703
O      -2.302650    3.954045    0.054857
N      -0.029721    4.013390    0.024349
C       1.174869    3.403519    0.004951
C       1.245045    2.045358   -0.002885
H      -0.106965    5.020263    0.030508
H       2.047676    4.045754   -0.003602
H       2.176383    1.501172   -0.018235
