19

C       0.018419    1.530125   -0.008639
C       0.021574    0.023541   -0.044369
C       0.519576   -0.939508   -1.119279
N       0.021705   -1.936808   -0.080222
C       0.518504   -0.988335    1.038351
C      -0.825794   -1.058513    1.761701
C      -1.159679   -0.974416    0.265075
C      -2.493707   -1.093563   -0.410703
H       1.035170    1.928796   -0.098204
H      -0.573853    1.942250   -0.833525
H      -0.406396    1.906308    0.928792
H      -0.017585   -0.986369   -2.073113
H       1.600079   -0.999600   -1.293179
H       1.532434   -1.093009    1.430075
H      -1.059532   -2.008794    2.250648
H      -1.105745   -0.204790    2.384753
H      -3.158556   -0.281447   -0.096841
H      -2.397732   -1.049988   -1.500719
H      -2.970493   -2.044237   -0.150730
