17

O      -0.075105    0.057628    0.418194
C      -0.089360    1.212242    0.082604
C      -1.326367    1.982843   -0.405166
O      -0.983999    3.354984   -0.502573
C       0.430419    3.533810   -0.401089
C       0.950906    4.203948    0.883319
C       0.438705    3.481738    2.094481
C       1.568872    2.867616    1.320823
C       1.070689    2.194625    0.021946
H      -1.638344    1.576646   -1.380664
H      -2.161069    1.849077    0.293300
H       0.814089    3.986809   -1.319817
H       1.369487    5.200702    0.935567
H       0.729102    3.923208    3.042087
H      -0.556201    3.046457    2.102358
H       2.536168    2.672971    1.764531
H       1.873514    1.817404   -0.613495
