16

O      -0.156794    0.062978    0.535070
C      -0.044384    1.213163    0.165582
N       1.112909    1.794875   -0.246019
C       2.396318    1.112239   -0.239143
C       3.001860    0.976122   -1.631659
C       4.200696    1.553343   -1.722304
C       4.563537    2.190186   -0.416955
O       3.634708    3.235502   -0.021757
C       3.462673    1.917222    0.511916
H      -0.895712    1.920244    0.120206
H       1.122544    2.772549   -0.495590
H       2.218189    0.138123    0.226234
H       2.453329    0.502520   -2.437408
H       4.825597    1.600737   -2.605249
H       5.590547    2.349678   -0.105964
H       3.573782    1.823277    1.587918
