19

C      -0.231092    1.552711    0.262063
N      -0.042061    0.124542    0.035731
C       0.786651   -0.479143    1.067652
C      -1.287865   -0.591216   -0.157024
C      -1.939634   -0.275011   -1.492379
C      -3.401095   -0.398335   -1.669665
O      -2.788029    0.880301   -1.550430
C      -1.095270   -0.459482   -2.663105
N      -0.438436   -0.634102   -3.597328
H       0.745582    2.043148    0.303288
H      -0.802228    1.997621   -0.554507
H      -0.764571    1.767421    1.207456
H       0.333001   -0.433488    2.076099
H       0.979583   -1.528914    0.826665
H       1.748664    0.039954    1.110411
H      -1.073819   -1.665969   -0.137278
H      -2.038225   -0.389348    0.632066
H      -3.799464   -0.640426   -2.652218
H      -4.001661   -0.714677   -0.818370
