16

C       0.178265    1.517538    0.117705
C       0.085065    0.033008   -0.000178
C      -0.043048   -0.733167   -1.145420
N      -0.054262   -2.050542   -0.699891
C       0.039514   -2.012648    0.651909
N       0.143470   -0.782147    1.105248
C      -0.118097   -0.355758   -2.561465
N       0.124311   -1.394699   -3.456479
O      -0.410627    0.762745   -2.943683
H       1.135738    1.809990    0.562398
H       0.070948    1.986445   -0.860230
H      -0.609015    1.892628    0.780108
H      -0.279112   -2.854480   -1.262681
H       0.024319   -2.907933    1.256373
H       0.828295   -2.072459   -3.202029
H       0.190305   -1.077185   -4.414130
