21

C      -0.045606    1.492022   -0.007587
C       0.012816    0.037026    0.006286
C       0.070345   -1.166328    0.009469
C       0.105894   -2.623825    0.034988
C       0.767764   -3.178611    1.318188
C       0.672066   -4.709686    1.346544
C      -0.773318   -5.155829    1.119276
O      -1.298562   -4.627570   -0.088127
C      -1.317052   -3.214771   -0.094231
H       0.485350    1.904378   -0.872835
H      -1.080552    1.848802   -0.054777
H       0.409428    1.918432    0.893394
H       0.679707   -2.987208   -0.829261
H       1.808241   -2.845203    1.377403
H       0.249084   -2.755703    2.188202
H       1.302246   -5.138154    0.557452
H       1.035807   -5.102179    2.303026
H      -0.846965   -6.243724    1.032790
H      -1.400978   -4.840235    1.971398
H      -1.941845   -2.829032    0.729144
H      -1.774042   -2.911023   -1.039327
