21

C      -0.051587    1.535949   -0.127190
C      -0.024680    0.042844    0.086560
O       1.215192   -0.638079   -0.105935
C       0.629811   -0.636285    1.225673
C       1.382091    0.140441    2.294122
C       2.207902   -0.800853    3.181968
C       1.313323   -1.855632    3.845927
C       0.387754   -2.497397    2.846340
C       0.105941   -1.955941    1.660023
H       0.784172    2.037119    0.363975
H      -0.000401    1.761376   -1.197775
H      -0.986932    1.956978    0.257645
H      -0.876805   -0.479289   -0.358022
H       2.028597    0.880178    1.816941
H       0.658266    0.685913    2.915357
H       2.958229   -1.306172    2.562047
H       2.750767   -0.226910    3.939796
H       1.926115   -2.625980    4.329450
H       0.724003   -1.398816    4.655968
H      -0.056110   -3.452392    3.117290
H      -0.535182   -2.474351    0.951939
