15

N      -0.004530   -1.152416   -0.050037
C      -0.019743    0.004620   -0.042947
C      -0.023836    1.433881   -0.009680
C      -0.557672    2.344937    1.158950
C       0.898834    2.676491    1.566670
C       1.235452    2.375053    0.085658
C       0.355971    3.306531   -0.771531
C      -0.920788    3.285085   -0.007317
N      -0.693945    2.280854   -1.105454
H      -1.327723    2.032909    1.859168
H       1.110877    3.678047    1.949028
H       1.313260    1.918442    2.237770
H       2.223759    2.092557   -0.266607
H       0.651042    4.066311   -1.482948
H      -1.705773    4.026723   -0.072258
