15

C      -0.302491    1.261384   -0.131700
O      -0.127704   -0.158361   -0.089847
C       0.596956   -0.694368   -1.086679
C       0.765575   -2.023083   -1.352604
C       0.218394   -3.247472   -0.687772
O      -1.073602   -3.027707   -0.162093
O       1.580418   -2.106537   -2.408619
N       1.909677   -0.783963   -2.797610
N       1.318381    0.010640   -2.005461
H       0.660320    1.774186   -0.051288
H      -0.793231    1.565540   -1.061534
H      -0.932298    1.507023    0.723335
H       0.135477   -4.051882   -1.424798
H       0.922780   -3.592111    0.087514
H      -1.042545   -2.240524    0.394355
