20

C       0.005921    1.561559   -0.028551
C       0.060901    0.039120   -0.003459
O      -1.265965   -0.523059    0.052901
C       0.705225   -0.543527   -1.267536
C       0.924096   -2.053058   -1.161266
N       1.776562   -2.321792   -0.003529
C       1.121270   -1.971510    1.255948
C       0.759200   -0.489920    1.272440
O       0.909406    0.199150    2.254082
H       1.009015    1.989096   -0.114756
H      -0.594571    1.893913   -0.879950
H      -0.432219    1.947045    0.896186
H      -1.724028   -0.109121    0.793617
H       0.058610   -0.306834   -2.119469
H       1.672827   -0.055599   -1.425894
H      -0.054170   -2.560846   -1.103935
H       1.435293   -2.416283   -2.058416
H       2.046057   -3.298855    0.017254
H       0.179932   -2.528346    1.431176
H       1.790453   -2.163400    2.097934
