15

O      -0.288110    0.104493    0.276801
C      -0.013575    1.263019    0.113597
C       1.396484    1.776797   -0.150475
C       1.443031    2.707590   -1.324238
C       1.303873    2.382122   -2.825170
C       2.255296    3.593781   -3.072596
O       2.838826    4.006116   -4.027403
C       2.307290    3.895688   -1.576490
O       0.924324    4.029163   -1.175234
H      -0.789163    2.058926    0.157632
H       1.717796    2.327739    0.743233
H       2.059773    0.919498   -0.294432
H       1.783240    1.451540   -3.143811
H       0.292171    2.441949   -3.230439
H       3.056592    4.387884   -0.967336
