21

O      -0.152391    1.430171   -0.003599
C       0.042943    0.039299    0.013950
C       0.963464   -0.638681   -1.048034
C       1.228723   -1.720228    0.045427
C       0.950267   -0.605807    1.095289
C       0.105721   -2.745759   -0.038255
C      -0.841896   -2.995302    1.105952
C      -1.280235   -2.138392   -0.061545
C      -1.348472   -0.611501    0.015846
H       0.712475    1.852704    0.016602
H       0.520733   -0.959434   -1.994941
H       1.848991   -0.024039   -1.241264
H       2.213747   -2.189250    0.075059
H       1.851592   -0.003352    1.252936
H       0.523139   -0.856389    2.068347
H       0.306851   -3.578006   -0.707077
H      -1.281932   -3.983919    1.185237
H      -0.654123   -2.526297    2.064981
H      -2.014030   -2.592469   -0.719305
H      -1.897533   -0.268791    0.901383
H      -1.889762   -0.227613   -0.855717
