19

C       0.019303    1.516146   -0.010432
N       1.261063    0.712936    0.037883
C      -0.044749    0.039185   -0.006816
C      -0.444185   -0.825578    1.195202
N      -0.626809   -2.197872    0.670969
C      -1.664887   -2.383414   -0.356666
C      -2.014341   -1.084169   -1.094979
C      -0.480585   -0.786958   -1.198268
C      -0.222784   -2.252744   -0.727666
H      -0.194340    2.076943    0.896127
H      -0.229135    2.040998   -0.930218
H       1.697744    0.699353   -0.881549
H       0.352927   -0.832748    1.942914
H      -1.365881   -0.481878    1.675639
H      -2.292001   -3.263752   -0.270324
H      -2.447532   -1.300087   -2.074794
H      -2.637793   -0.342843   -0.583580
H      -0.107919   -0.449372   -2.165669
H       0.514843   -2.966640   -1.073433
