14

O      -0.239519    0.508284   -0.266147
C       0.013375    1.665117   -0.059709
N       1.199309    2.101286    0.540166
C       2.500729    1.614306    0.202698
C       2.126370    3.079365    0.021313
C       1.985001    3.558845   -1.397135
O       1.262457    3.013314   -2.204509
C       2.796184    4.711702   -1.731480
C       3.478842    5.670342   -1.983930
H      -0.696795    2.494437   -0.216441
H       3.154391    1.344727    1.026974
H       2.585667    1.014283   -0.699734
H       2.508327    3.808428    0.730708
H       4.074554    6.516868   -2.228048
