20

C      -0.012706    1.537004    0.060489
C      -0.003261    0.039834   -0.004560
C       1.086713   -0.857463   -0.535259
C       0.544310   -1.772922   -1.621589
C      -0.870968   -2.096247   -1.114541
C      -0.762722   -2.985291    0.145373
N      -0.696746   -1.765372    1.018909
C       0.584131   -1.027687    0.900795
C      -1.211505   -0.913140   -0.125620
H       0.977720    1.923161    0.323103
H      -0.292029    1.977884   -0.904301
H      -0.721949    1.903558    0.811025
H       2.085544   -0.440985   -0.624231
H       0.519649   -1.237349   -2.579333
H       1.134015   -2.685137   -1.768200
H      -1.580209   -2.377270   -1.895115
H      -1.673165   -3.546618    0.377350
H       0.099970   -3.656836    0.212378
H       1.251435   -0.941563    1.752429
H      -2.233117   -0.537169   -0.050044
