21

C      -0.131511    1.538252    0.293178
C       0.043201    0.018148    0.181875
C       0.812431   -0.540809    1.386872
C      -1.319587   -0.669131    0.018719
C      -1.264995   -2.110804   -0.452116
O      -0.242054   -2.674974   -0.768109
C      -2.600354   -2.860667   -0.511715
C      -2.541646   -4.115066    0.349760
O      -3.397621   -4.434158    1.130562
H       0.838695    2.036490    0.386668
H      -0.637153    1.952384   -0.585965
H      -0.725603    1.804845    1.175677
H       0.626277   -0.201952   -0.720497
H       0.973192   -1.616667    1.288388
H       1.791823   -0.060476    1.477733
H       0.265544   -0.355736    2.319784
H      -1.895315   -0.638730    0.956028
H      -1.946257   -0.130646   -0.709068
H      -3.458885   -2.253752   -0.218939
H      -2.728739   -3.193522   -1.550217
H      -1.623468   -4.718940    0.195578
