15

C       0.313292    1.385933    0.208460
C       0.013748   -0.062010   -0.096130
C       0.784050   -0.810302   -1.153878
N       0.958883   -1.102250    0.253146
C       2.104313   -0.949565    1.013354
O       2.131367   -0.369943    2.079431
C       3.267287   -1.625854    0.458505
C       4.252864   -2.156719    0.018945
H       1.343087    1.644235   -0.053414
H      -0.361168    2.032339   -0.361855
H       0.179966    1.593675    1.273196
H      -1.023423   -0.358191    0.053798
H       0.300235   -1.584078   -1.743883
H       1.585880   -0.277774   -1.660491
H       5.129205   -2.625870   -0.357364
