11

O       0.081855    1.327854    0.158812
C       0.054244   -0.010458    0.000534
C       0.032704   -0.800837   -1.131154
O      -0.016333   -0.289250   -2.408334
C      -0.008599   -2.124149   -0.639978
N      -0.001214   -2.156234    0.689624
N       0.027473   -0.848368    1.058408
H       0.074721    1.713527   -0.726448
H       0.717054   -0.647685   -2.918822
H      -0.035856   -3.046433   -1.202209
H       0.024862   -0.600054    2.032528
