19

C       0.030601    1.547263   -0.006870
C       0.033958    0.049867   -0.047106
C       0.630054   -0.893855   -1.143013
C      -0.439928   -1.890373   -0.754642
C       0.907693   -1.885796   -0.036246
C       0.597741   -0.874228    1.098276
O       1.622625   -0.415175    1.917343
C      -0.843349   -1.167357    1.598558
C      -1.228681   -0.891331    0.125713
H       1.053084    1.939692    0.019993
H      -0.470138    1.966978   -0.886868
H      -0.489866    1.917585    0.883413
H       1.132714   -0.719045   -2.085366
H      -0.806289   -2.745748   -1.307833
H       1.580705   -2.734397   -0.024266
H       1.999348   -1.165719    2.389741
H      -1.069303   -2.150490    2.024009
H      -1.192542   -0.376359    2.269595
H      -2.234459   -0.600606   -0.174266
