18

C      -0.033189    1.610797   -0.019377
C       0.014293    0.090824    0.007099
C       0.706833   -0.664870   -1.188856
N       1.710684   -1.132434   -0.239288
C       1.117815   -0.573055    0.873475
O       1.378503   -0.604751    2.043807
C      -0.127294   -1.758256   -1.840904
C      -1.131874   -1.297600   -2.878940
O       0.022505   -2.920197   -1.542639
H       0.940685    2.031900   -0.288660
H      -0.774745    1.977840   -0.736264
H      -0.302428    1.992138    0.970034
H      -0.965542   -0.332559    0.250598
H       1.102146    0.014036   -1.955404
H       2.289283   -1.958019   -0.304939
H      -1.735714   -0.464516   -2.503479
H      -0.601940   -0.931250   -3.766218
H      -1.776687   -2.129061   -3.164887
