15

O      -0.420266    1.497224    0.358508
C      -0.080351    0.171124    0.071783
C       0.480634   -0.746690    1.209686
C      -0.652402   -1.777344    0.935712
O      -0.220885   -3.072939    0.749790
C      -1.292171   -0.759709   -0.087906
O      -2.340831   -0.482481    0.888422
C      -1.912489   -1.465373    1.751204
O      -2.450231   -1.866829    2.731900
H       0.390411    2.006823    0.455871
H       0.553516    0.088377   -0.823406
H       1.462643   -1.173100    0.996947
H       0.476822   -0.310731    2.210165
H      -0.980023   -3.666970    0.763015
H      -1.713833   -0.985193   -1.065675
