18

N      -0.082188    1.174363   -0.538100
C      -0.018445    0.005210   -0.065603
O       1.117194   -0.567720    0.451548
C       0.834925   -1.865851    0.945426
C      -0.071283   -1.955216    2.137518
C      -0.619801   -2.172664    0.734696
C      -1.157378   -0.963300    0.027650
C      -2.564144   -0.427555    0.176951
C      -2.139536   -1.043275   -1.122398
H       0.823317    1.640907   -0.489013
H       1.650406   -2.557515    0.777153
H       0.028176   -2.828404    2.773269
H      -0.323422   -1.035297    2.655055
H      -0.958680   -3.158702    0.441079
H      -3.239276   -0.984532    0.817469
H      -2.660061    0.651548    0.215140
H      -1.952635   -0.381007   -1.959644
H      -2.521844   -2.025689   -1.379535
