11

O       0.052560    0.007412    0.004967
C       0.009916    1.195437    0.048655
C      -1.150392    2.238439    0.103899
C      -0.062221    3.307711   -0.099352
O       0.831467    3.188606    1.003202
C       1.052264    2.310098   -0.113363
C      -0.158397    4.548782   -0.801017
N      -0.275962    5.544923   -1.375634
H      -1.825881    2.105520   -0.745310
H      -1.715256    2.326651    1.032714
H       2.022883    2.334933   -0.594299
