19

C       0.016745    1.681798    0.091284
C       0.131688    0.180975   -0.033003
C       1.442388   -0.560259   -0.228689
O       2.638985    0.129837    0.070197
C       2.808142    0.020049    1.481787
C       3.588577    1.226580    1.986367
O       3.114520    2.444663    1.460775
O       1.502134   -0.035706    2.030018
C       0.704078   -0.691122    1.068946
H       0.098439    2.162522   -0.889457
H      -0.956733    1.950381    0.514195
H       0.788020    2.087917    0.746210
H      -0.688845   -0.299418   -0.564373
H       1.552147   -1.350448   -0.963478
H       3.348890   -0.913985    1.718458
H       3.494226    1.272712    3.075116
H       4.650888    1.064605    1.744158
H       3.038630    2.309136    0.508140
H       0.212645   -1.592612    1.419449
