18

C      -0.559997    1.187774   -0.349742
C       0.041327   -0.215553   -0.268732
C       0.939504   -0.645992   -1.412790
C       2.080907   -1.155618   -0.948906
C       2.096041   -1.084980    0.542467
C       2.110720    0.291808    1.174226
C       2.589273    1.488539    0.429025
O       3.094295    2.431571    0.993698
N       0.843274   -0.459802    0.961296
H       0.202352    1.961991   -0.468849
H      -1.242052    1.254434   -1.202948
H      -1.128483    1.404006    0.558547
H      -0.802699   -0.919106   -0.199729
H       0.659185   -0.543182   -2.454812
H       2.894480   -1.563709   -1.535266
H       2.477897   -1.919784    1.125774
H       2.357024    0.358695    2.230957
H       2.495511    1.462291   -0.672818
