18

C      -0.076890    1.567192    0.069886
C       0.011009    0.041389    0.003549
C       0.723270   -0.493143   -1.260375
C       0.881385   -2.030995   -1.236733
C       1.670624   -2.593621   -2.420268
C       0.012940   -0.066351   -2.471996
N      -0.561149    0.260569   -3.421042
H       0.919452    2.022688    0.061694
H      -0.636445    1.969969   -0.779664
H      -0.581126    1.885819    0.986695
H       0.561194   -0.340295    0.871382
H      -0.992966   -0.396010    0.051352
H       1.725323   -0.043861   -1.307881
H       1.380448   -2.290978   -0.296061
H      -0.115546   -2.485166   -1.198980
H       1.181891   -2.359406   -3.370715
H       2.684564   -2.180023   -2.453504
H       1.757039   -3.681374   -2.345156
