21

C       0.012761    1.574963    0.032424
C       0.065685    0.045162    0.016925
C       0.780394   -0.510385   -1.223113
O       2.152392   -0.095671   -1.137690
C       0.654309   -2.038994   -1.280199
C       0.922878   -2.691315    0.050757
C       0.932931   -2.020686    1.200940
C       0.705999   -0.529868    1.303240
O       1.919380    0.129705    1.660618
H       1.017478    1.998227    0.070085
H      -0.492809    1.954786   -0.861911
H      -0.535221    1.935263    0.908901
H      -0.961342   -0.342859   -0.026009
H       0.331749   -0.077064   -2.130012
H       2.645441   -0.523134   -1.844453
H      -0.353638   -2.300393   -1.635186
H       1.337882   -2.437259   -2.044226
H       1.114891   -3.761884    0.042468
H       1.162984   -2.530987    2.132572
H       0.025277   -0.327605    2.139843
H       2.494130    0.034420    0.888540
