20

C      -0.047131    1.559940   -0.062547
C       0.022961    0.027006   -0.033133
C       0.748790   -0.507529   -1.275294
C       0.710456   -0.503541    1.237777
C      -0.033410   -0.184624    2.550989
N      -1.385413   -0.749540    2.538201
C       0.769647   -0.642166    3.707345
N       1.364242   -1.028323    4.621143
H       0.954515    2.002798    0.000434
H      -0.503479    1.906725   -0.995128
H      -0.647413    1.963084    0.758741
H      -1.002698   -0.358910   -0.038100
H       1.784959   -0.149983   -1.313067
H       0.774695   -1.602337   -1.285026
H       0.251314   -0.176062   -2.192337
H       0.820513   -1.593469    1.167705
H       1.726776   -0.097273    1.309957
H      -0.134530    0.902149    2.647967
H      -1.331819   -1.764704    2.520630
H      -1.877146   -0.502382    3.391650
