17

C      -0.030575    1.533590   -0.026323
C      -0.007393    0.021536    0.008829
C      -0.023496   -0.692862   -1.191179
C      -0.003213   -2.084777   -1.209438
C       0.034020   -2.802656   -0.014953
C       0.050524   -2.112808    1.187312
C       0.030323   -0.712198    1.212919
C       0.050059   -0.046777    2.536863
O       0.082138   -0.634686    3.595642
H       0.855430    1.970020    0.446665
H      -0.060159    1.887776   -1.059556
H      -0.905716    1.944094    0.488223
H      -0.052536   -0.146231   -2.128937
H      -0.016584   -2.608681   -2.159828
H       0.049878   -3.887037   -0.025974
H       0.079399   -2.632639    2.138511
H       0.033540    1.062077    2.517338
