19

C      -1.123563    1.016554   -0.724015
O      -0.562852   -0.249915   -0.465621
C       0.676943   -0.441060   -1.105076
C       1.196795   -1.795820   -0.705882
O       0.820226   -2.938243   -1.474410
C       2.194272   -2.553818   -1.486950
C       2.804305   -2.047622   -2.776950
C       1.982810   -2.174956   -4.040571
O       3.936339   -1.621450   -2.758936
H      -0.465183    1.831236   -0.383302
H      -1.324334    1.163275   -1.796856
H      -2.067564    1.071338   -0.177411
H       0.574806   -0.366013   -2.198291
H       1.403483    0.328116   -0.788153
H       1.180399   -1.963470    0.371663
H       2.872579   -3.198166   -0.926412
H       0.955410   -1.834331   -3.897356
H       2.469905   -1.633900   -4.852447
H       1.914364   -3.238400   -4.302665
