19

C      -0.054795    1.567274    0.024032
C      -0.017993    0.027257   -0.011670
C      -1.452786   -0.528979    0.000922
O      -2.086623   -0.107081    1.198488
C       0.773778   -0.524373   -1.221111
C       1.946945   -1.329911   -0.635125
O       2.793093   -1.912683   -1.271940
C       1.825646   -1.246710    0.838175
C       0.758852   -0.515155    1.175912
H       0.958406    1.980139    0.036452
H      -0.570594    1.957014   -0.860411
H      -0.587617    1.921222    0.909662
H      -1.988313   -0.157739   -0.887754
H      -1.415781   -1.627571   -0.063651
H      -2.983568   -0.452607    1.207770
H       0.174982   -1.180685   -1.861930
H       1.164594    0.269966   -1.863582
H       2.526903   -1.729477    1.507123
H       0.430826   -0.300261    2.186673
