21

C       0.199140    1.344815    0.132491
C       0.110536   -0.156444    0.088724
C       0.589983   -1.116449   -1.052440
C      -0.004660   -2.059507    0.035364
C       0.737246   -1.183825    1.093547
O       2.124638   -1.264021    1.278619
C      -1.183321   -1.042494    0.122374
C      -2.153491   -1.004296    1.289212
O      -2.841213    0.241425    1.206334
H       1.242460    1.671378    0.207974
H      -0.233485    1.793830   -0.767930
H      -0.348996    1.737276    0.994024
H       0.041020   -1.054914   -1.996207
H       1.663359   -1.179998   -1.257529
H      -0.073823   -3.147682   -0.003515
H       0.325006   -1.186413    2.102394
H       2.562943   -1.267481    0.422083
H      -1.761222   -0.971740   -0.805338
H      -2.854856   -1.849576    1.196055
H      -1.653497   -1.108800    2.261188
H      -3.489013    0.274568    1.916442
