21

C       0.077446    1.391530   -0.010938
O      -0.187731    0.030749   -0.279114
C       0.750093   -0.579032   -1.155431
C       2.094042   -0.651205   -0.557606
C       3.187699   -0.716323   -0.062167
C       0.219534   -1.959031   -1.484245
C      -0.810328   -2.137583   -2.571208
C       0.582733   -2.687996   -2.757822
C       1.522590   -2.124238   -3.803032
H       1.041671    1.530092    0.496524
H       0.080209    1.992135   -0.934555
H      -0.724315    1.748057    0.639732
H       0.819948    0.020421   -2.078310
H       4.155472   -0.774852    0.371491
H       0.107248   -2.572981   -0.596040
H      -1.635504   -2.818646   -2.395715
H      -1.078257   -1.257119   -3.147913
H       0.676848   -3.763769   -2.632699
H       1.353161   -1.057800   -3.978553
H       2.569968   -2.250320   -3.509054
H       1.378629   -2.635408   -4.761129
