17

C      -0.016026    1.556046    0.035920
C      -0.024336    0.013836   -0.025682
C      -1.460810   -0.547156    0.038332
C       0.672775   -0.466398   -1.212970
C       1.249453   -0.863635   -2.204540
C       1.887000   -1.302881   -3.312112
C       2.461914   -1.698940   -4.311051
C       3.100150   -2.138662   -5.420043
C       3.670474   -2.531753   -6.412019
H       1.004507    1.946252    0.016061
H      -0.559519    1.978147   -0.814472
H      -0.500027    1.894615    0.957161
H       0.522696   -0.360939    0.851433
H      -2.050722   -0.192625   -0.811980
H      -1.458896   -1.639773    0.020176
H      -1.949503   -0.215420    0.959583
H       4.171603   -2.877013   -7.281971
