15

O      -0.587492    0.584910    0.682754
C       0.113458    0.988093   -0.207281
C       1.231811    2.001716   -0.000935
C       1.328526    2.585012    1.426879
C       2.488130    1.611946    1.790872
C       2.570879    1.196432    0.325561
O       3.327066    0.589235   -0.358354
C       1.364105    2.899462   -1.205549
O       1.345570    2.489964   -2.337409
H       0.020711    0.645366   -1.254946
H       1.632518    3.634540    1.426939
H       0.418864    2.461056    2.013068
H       3.409274    2.030089    2.204208
H       2.170463    0.772517    2.417823
H       1.498378    3.977971   -0.969831
