19

C      -0.029093    1.433077   -0.088495
C      -0.005854   -0.083929   -0.090046
O      -1.356070   -0.537189    0.049175
C      -1.536362   -1.868454    0.066820
N      -0.536880   -2.738280   -0.035639
N      -1.144862   -3.952057    0.025535
C      -0.345972   -5.150568   -0.056721
C      -2.486554   -3.843789    0.162429
C      -2.794025   -2.500632    0.194657
H       0.987910    1.822763   -0.193177
H      -0.632528    1.813189   -0.917790
H      -0.451337    1.814138    0.845772
H       0.417507   -0.482049   -1.020271
H       0.598130   -0.480986    0.734957
H      -1.005250   -6.018026    0.010043
H       0.198144   -5.185466   -1.005492
H       0.378594   -5.186488    0.762514
H      -3.114722   -4.718991    0.225760
H      -3.761281   -2.038689    0.293585
