19

C       0.036013   -2.873827    1.277552
C      -0.317793   -1.388343    1.422343
C      -1.462297   -0.997393    0.508815
C      -2.883964   -1.037778    0.961361
N      -2.241376    0.234781    0.649532
C      -1.957191    1.215571    1.706276
C      -2.091668    0.801223    3.106832
C      -2.242688    0.477260    4.255746
H       0.886456   -3.140212    1.912230
H      -0.809566   -3.508773    1.561574
H       0.302127   -3.119546    0.243527
H      -0.569000   -1.164785    2.462398
H       0.563232   -0.780805    1.173902
H      -1.269593   -1.232061   -0.539401
H      -3.683174   -1.338772    0.288423
H      -3.054688   -1.272704    2.010129
H      -0.947087    1.607754    1.536869
H      -2.640886    2.058428    1.542468
H      -2.362998    0.195303    5.272689
