16

O       0.099916    1.495303    0.452299
C       0.035220    0.142893    0.065539
C       0.716616   -0.766402    1.090272
O      -0.238718   -0.841084    2.142350
C      -1.502948   -1.068072    1.526086
C      -1.417319   -0.447485    0.088585
C      -2.467124    0.510169   -0.207292
C      -3.356237    1.286387   -0.434496
H      -0.204702    1.547282    1.366417
H       0.474471    0.086478   -0.932720
H       0.930565   -1.763276    0.670005
H       1.637049   -0.335054    1.488507
H      -1.710628   -2.145283    1.462549
H      -2.271926   -0.598149    2.142094
H      -1.457800   -1.257918   -0.648162
H      -4.130926    1.981561   -0.644148
