12

C       0.322578    1.430426   -0.092294
C      -0.300234    0.067167    0.111694
O      -0.565227   -0.380218    1.202857
C      -0.574020   -0.760381   -1.148244
C       0.032048   -2.151900   -1.025271
O       0.639253   -2.697197   -1.907499
H       1.287264    1.327137   -0.603142
H      -0.312896    2.042961   -0.742325
H       0.461768    1.927450    0.868283
H      -1.663501   -0.891997   -1.204941
H      -0.229301   -0.287633   -2.069801
H      -0.134761   -2.626284   -0.036611
