21

C      -0.419126    1.440768   -0.158588
C       0.124138    0.007887   -0.010635
C       0.911788   -0.462784   -1.195771
C       2.201425   -0.787674   -1.262104
C       2.568483   -1.244179   -2.642991
C       3.019158   -2.705873   -2.740245
O       3.157663   -3.101509   -4.088937
O       1.355464   -1.103010   -3.403642
C       0.297091   -0.651087   -2.562854
H       0.396891    2.153963   -0.309873
H      -1.101843    1.527801   -1.009419
H      -0.968733    1.737826    0.739460
H       0.751821   -0.055122    0.884593
H      -0.721429   -0.674730    0.153751
H       2.910177   -0.759730   -0.443205
H       3.341586   -0.615336   -3.112140
H       3.997261   -2.833239   -2.262611
H       2.292531   -3.336194   -2.201708
H       2.338997   -2.828901   -4.521777
H      -0.521611   -1.389061   -2.547674
H      -0.120072    0.281579   -2.972356
