21

C       0.080053    1.369089    0.387707
C       0.169481   -0.094188    0.018666
C       0.688225   -0.587125   -1.316043
C       1.163672    0.344043   -2.411488
C       1.494026   -0.825217   -0.053641
N       2.718539   -0.106023    0.118957
C       3.165725    0.260153    1.368811
N       4.449376    0.801601    1.377333
O       2.484924    0.179250    2.373459
H       0.920562    1.946064   -0.003462
H      -0.843114    1.813662   -0.000135
H       0.089935    1.480482    1.475216
H      -0.630882   -0.694895    0.442830
H       0.197827   -1.478683   -1.698783
H       1.693981    1.213843   -2.017634
H       1.838898   -0.174364   -3.103059
H       0.317023    0.713310   -3.000065
H       1.506595   -1.839474    0.340915
H       3.365130   -0.086387   -0.653209
H       5.114955    0.470690    0.695120
H       4.824384    0.872053    2.310964
