17

O       0.260443    1.449985    0.227559
C       0.031850    0.090673    0.053345
C       0.821249   -0.762157    1.098398
O       0.456837   -2.131863    0.756933
C      -0.392455   -1.849310   -0.316649
C      -1.300061   -2.456398   -1.391265
C      -1.355336   -0.891409   -1.584779
C      -1.333116   -0.638184   -0.045789
C       0.160722   -0.734688   -1.252938
H      -0.244893    1.930496   -0.435917
H       1.904495   -0.634567    1.004008
H       0.515037   -0.544811    2.126798
H      -0.818422   -3.031940   -2.186859
H      -2.220478   -2.941364   -1.053872
H      -1.928575   -0.354757   -2.337061
H      -2.175723   -0.654469    0.645828
H       1.008267   -0.860154   -1.927111
