18

C      -0.508897   -1.050401   -0.820967
C      -0.273469    0.034608   -0.361522
C       0.013937    1.342712    0.200890
C      -0.243182    1.476569    1.722450
C       0.564417    2.725411    2.162774
C       1.517877    3.068101    0.984960
C       1.490102    1.829092    0.053504
C       2.449431    0.811179    0.487037
N       3.220627    0.029602    0.848242
H      -0.709217   -2.012549   -1.223428
H      -0.593839    2.093243   -0.322139
H      -1.310363    1.553388    1.940374
H       0.127626    0.577693    2.222137
H      -0.091175    3.572087    2.381556
H       1.125931    2.516594    3.076138
H       1.139779    3.924259    0.418288
H       2.530268    3.313883    1.309589
H       1.720182    2.085975   -0.984300
