20

C      -0.485889    1.411138    0.276714
N       0.086060    0.091046    0.017242
C      -0.906770   -0.913883   -0.369795
C      -1.506637   -1.448968    0.951859
C      -0.302474   -1.402092    1.935420
N       0.260164   -2.748235    2.116034
C       0.751520   -0.501468    1.167736
C      -0.683192   -0.791246    3.222133
N      -0.961609   -0.339609    4.251014
H       0.314497    2.101946    0.556666
H      -0.945650    1.788905   -0.641281
H      -1.247036    1.436467    1.075765
H      -1.654186   -0.489090   -1.043639
H      -0.397325   -1.728722   -0.897522
H      -2.315637   -0.804677    1.303247
H      -1.895005   -2.466327    0.866462
H       1.113169   -2.694479    2.667822
H      -0.385272   -3.323158    2.651624
H       1.536217   -1.187889    0.828655
H       1.202322    0.261885    1.804283
