17

O       0.007429    1.365750    0.134527
C       0.026847   -0.001856    0.000317
C      -0.275274   -0.845338    1.189407
C      -1.180159   -1.019571   -0.029339
C      -2.572460   -0.738722   -0.010099
C      -3.751383   -0.490823   -0.017574
C      -0.444081   -1.789980   -1.105839
C      -0.189931   -0.926583   -2.307165
C       0.706221   -0.774515   -1.097373
H      -0.204310    1.751757   -0.723374
H       0.383388   -1.657829    1.485840
H      -0.733812   -0.303894    2.010571
H      -4.791914   -0.281465   -0.015279
H      -0.341232   -2.868473   -1.132705
H       0.265047   -1.422167   -3.159417
H      -0.902545   -0.150018   -2.572024
H       1.768353   -0.988207   -1.143243
