19

O      -0.038204   -0.142878   -0.192244
C       0.040413    1.056831   -0.154378
C       1.333611    1.841928   -0.138106
C       1.375807    2.892600   -1.258858
C       2.619317    3.767927   -1.179734
O       2.574528    4.701066   -2.239490
C       3.684704    5.558839   -2.283522
C       3.513145    6.498030   -3.465437
O       4.300230    7.360477   -3.749129
H      -0.877341    1.691311   -0.129660
H       1.393968    2.349047    0.836687
H       2.168136    1.137784   -0.204844
H       1.352333    2.400780   -2.237497
H       0.490332    3.537302   -1.206629
H       2.659543    4.292052   -0.209379
H       3.531110    3.151316   -1.251482
H       3.782566    6.160657   -1.363919
H       4.631632    5.005574   -2.406334
H       2.585188    6.312428   -4.049840
