23

C      -0.139374    1.434466    0.293563
C      -0.014894   -0.045265    0.087827
C      -0.030533   -0.675119   -1.089978
C       0.058942   -2.173669   -0.958425
C       0.455037   -2.352193    0.526490
C       0.078856   -1.033801    1.238790
C       0.939536   -0.609092    2.473295
C      -0.351549   -0.248176    3.252495
C      -1.177056   -1.015844    2.187752
H       0.718339    1.842661    0.841838
H      -0.207284    1.961282   -0.662155
H      -1.032603    1.687323    0.878737
H      -0.138201   -0.175629   -2.048084
H      -0.907055   -2.646082   -1.187804
H       0.786695   -2.623831   -1.643738
H      -0.006546   -3.226185    0.995909
H       1.540760   -2.487386    0.596581
H       1.454928   -1.472649    2.905194
H       1.677361    0.183213    2.318405
H      -0.422460   -0.600229    4.284397
H      -0.556849    0.825441    3.245268
H      -2.078591   -0.530198    1.804214
H      -1.444224   -2.025329    2.514295
