15

C      -0.538673   -1.337742   -0.073849
C      -0.270852   -0.167759   -0.022047
C       0.031734    1.247135    0.042382
C      -0.173330    1.987264    1.434871
C       1.315289    2.286329    1.355071
C       2.544794    2.806147    1.668119
N       3.435417    2.430232    0.679238
C       2.773039    1.716389   -0.212918
N       1.473776    1.607755    0.182122
H      -0.770008   -2.373651   -0.119173
H      -0.432438    1.780954   -0.792307
H      -0.849026    2.843796    1.385021
H      -0.487529    1.318309    2.237912
H       2.860912    3.404892    2.506929
H       3.182371    1.270136   -1.104785
