20

O       0.295770    0.715118    1.422179
C       0.187664    1.458369    0.470093
N       1.156209    1.705642   -0.452232
C       2.491337    1.130086   -0.380248
C       3.562265    2.167099   -0.139284
C       3.713607    3.111795    1.093007
C       4.913478    3.441713    0.160810
C       5.096935    1.909575   -0.033207
C       3.914480    3.403464   -1.029612
H      -0.740951    2.020824    0.245915
H       0.954642    2.367751   -1.184533
H       2.466483    0.407398    0.439533
H       2.707845    0.580521   -1.306107
H       2.953134    3.888440    1.210742
H       3.946403    2.632011    2.047438
H       5.696421    4.180016    0.333475
H       5.435944    1.339888    0.836616
H       5.603744    1.585635   -0.947106
H       4.333976    3.193372   -2.018326
H       3.174082    4.208513   -1.071201
