19

C      -0.684407    1.307002   -0.277821
C       0.074798    0.021284    0.002180
O       0.554119   -0.492806   -1.223365
C       1.278395   -1.692850   -1.080898
C       1.737817   -2.149899   -2.427775
C       1.512206   -1.534639   -3.618124
O       2.080385   -2.236279   -4.637935
C       2.679640   -3.320238   -4.082963
C       2.506319   -3.324882   -2.736558
H      -0.029083    2.043390   -0.751473
H      -1.527055    1.116000   -0.948287
H      -1.070246    1.732635    0.653249
H       0.916683    0.209950    0.690089
H      -0.581397   -0.717537    0.493233
H       2.143779   -1.544013   -0.409803
H       0.650723   -2.468329   -0.605427
H       0.989708   -0.634371   -3.888658
H       3.180332   -3.983311   -4.768959
H       2.875251   -4.066310   -2.044418
