21

C       0.068394    0.861499   -1.347908
C      -0.262798   -0.176551   -0.278044
O       0.054446   -1.509440   -0.649941
C       1.427546   -1.850997   -0.631828
C       1.978190   -2.117469   -2.041402
O       3.361925   -2.413777   -1.968041
C       1.166215   -3.219425   -2.749745
C       1.574939   -3.450109   -4.127992
C       1.911873   -3.629856   -5.267401
H       1.145885    0.926679   -1.529380
H      -0.425853    0.611846   -2.291508
H      -0.274974    1.851513   -1.029172
H       0.239007    0.079002    0.668110
H      -1.340424   -0.182349   -0.084096
H       2.037012   -1.069757   -0.160127
H       1.543048   -2.765773   -0.028585
H       1.909778   -1.199144   -2.633510
H       3.461654   -3.293377   -1.586882
H       1.259312   -4.150688   -2.170154
H       0.107937   -2.938963   -2.703190
H       2.210273   -3.791074   -6.273320
