19

C      -0.472308    1.421738   -0.240476
N       0.054330    0.080661    0.045976
C       0.821061   -0.484988   -1.016339
C       0.072975   -1.047442   -2.229083
C       0.838393   -1.983138   -1.368040
N       2.143242   -2.399272   -1.862158
C       2.934567   -1.169047   -2.063388
C       2.218042   -0.034190   -1.307794
O       2.728195    0.997050   -0.935274
H       0.304374    2.159445   -0.479601
H      -1.165101    1.361841   -1.086117
H      -1.037346    1.771571    0.628409
H       0.625773    0.122558    0.884023
H      -1.004084   -1.049195   -2.108373
H       0.424380   -0.822689   -3.230415
H       0.306158   -2.699322   -0.754596
H       2.590979   -2.956546   -1.142830
H       3.958276   -1.279958   -1.700004
H       3.000219   -0.906819   -3.127929
