19

C      -1.010219    1.116762   -0.007355
C       0.008070   -0.006431   -0.040078
N       1.310931    0.314238   -0.680859
C       2.022828   -0.570079    0.262874
C       3.338738   -0.114073    0.700505
N       4.372322    0.233283    1.085573
C       0.784677   -0.434668    1.239698
C       0.955441    0.634083    2.305832
O       0.295294   -1.640861    1.760922
H      -0.578557    2.035687    0.396744
H      -1.371542    1.332234   -1.018546
H      -1.875935    0.832012    0.599800
H      -0.451458   -0.917927   -0.450749
H       1.402120    0.056675   -1.657808
H       2.095760   -1.619666   -0.052641
H       1.326397    1.566270    1.874101
H       0.000803    0.828009    2.803407
H       1.683940    0.309628    3.058264
H       0.665202   -1.771960    2.640738
