19

O       0.015339    1.356927   -0.435847
C       0.010067    0.031803    0.074453
C      -1.377836   -0.553193   -0.148066
C      -1.492487   -2.004492    0.348780
C      -2.854132   -2.593884    0.132460
N      -3.667300   -2.815876    1.164957
N      -4.789870   -3.319274    0.613922
C      -4.717852   -3.426717   -0.734032
C      -3.470727   -2.963459   -1.089582
H       0.885080    1.735510   -0.278798
H       0.763024   -0.593725   -0.434170
H       0.251315    0.017231    1.150209
H      -2.114692    0.073632    0.366065
H      -1.611869   -0.499758   -1.217649
H      -0.740400   -2.621149   -0.160820
H      -1.270000   -2.050151    1.420041
H      -5.555501   -3.572512    1.214231
H      -5.536720   -3.817357   -1.317508
H      -3.060785   -2.901811   -2.084851
