22

C       0.081835    1.525842    0.084745
C       0.041388    0.007266    0.020317
C       0.591809   -0.538706   -1.304317
N       0.931472   -1.972301   -1.280860
C       2.224274   -2.328147   -0.691523
C       0.964005   -2.653385    0.021587
C       0.592358   -1.893813    1.285743
C       1.391279   -2.344545    2.501016
O       0.800793   -0.500418    1.113071
H       1.116394    1.879501    0.036496
H      -0.472670    1.961293   -0.752394
H      -0.359904    1.883470    1.018565
H      -1.001676   -0.335119    0.137167
H      -0.156341   -0.381879   -2.091233
H       1.483383    0.032332   -1.591181
H       2.783533   -3.100260   -1.214042
H       2.826569   -1.521208   -0.278437
H       0.588677   -3.675802   -0.007756
H      -0.482215   -2.065261    1.479761
H       2.459399   -2.172196    2.342748
H       1.076832   -1.787892    3.388165
H       1.235753   -3.411784    2.686231
