18

C       0.133392    1.446874   -0.144882
C      -0.192310   -0.011379    0.051788
N      -0.821300   -0.568827    0.998355
O       0.310143   -0.726631   -0.991824
C       0.156813   -2.135665   -0.966961
C      -1.204064   -2.687331   -1.312885
C      -0.098979   -2.727457   -2.334719
C       1.012149   -2.829389   -0.043742
C       1.747583   -3.426271    0.696360
H       1.218236    1.588627   -0.167654
H      -0.258407    1.796475   -1.104846
H      -0.290155    2.052257    0.657874
H      -1.117999    0.122588    1.683512
H      -1.505866   -3.605305   -0.823980
H      -1.991212   -1.954775   -1.441038
H      -0.136181   -2.017314   -3.152715
H       0.374514   -3.674685   -2.561790
H       2.383421   -3.946828    1.368508
