21

O      -0.099044    1.465909    0.064159
C       0.007538    0.047447   -0.020549
C       0.778916   -0.498036    1.193039
C       1.043220   -2.012857    1.241555
C      -0.225308   -2.882152    1.325740
C      -0.911903   -3.027035   -0.019609
O      -2.329496   -2.841543   -0.085738
C      -1.488337   -1.868627   -0.716974
C      -1.431409   -0.475795   -0.124665
H       0.784539    1.824028    0.197474
H       0.549792   -0.232932   -0.941418
H       1.749281    0.017867    1.229091
H       0.234370   -0.191505    2.096005
H       1.636969   -2.316740    0.368567
H       1.671760   -2.214148    2.116466
H       0.032457   -3.877123    1.705051
H      -0.932244   -2.448882    2.040884
H      -0.549551   -3.851244   -0.637060
H      -1.520382   -1.907736   -1.807057
H      -1.902779   -0.475263    0.862756
H      -1.997735    0.220888   -0.750217
