15

O      -0.060875    1.312521   -0.245648
C       0.041697   -0.024622   -0.069059
N       1.214286   -0.534595   -0.151724
C       1.593577   -1.868590    0.023913
N       2.803232   -2.180027    0.318701
C       0.674169   -2.997137   -0.199159
C      -0.670391   -3.022448   -0.133769
C      -1.564119   -1.920599    0.137879
C      -1.268029   -0.608061    0.189241
H       0.842429    1.625873   -0.402926
H       3.344877   -1.320214    0.434309
H       1.201591   -3.929130   -0.377697
H      -1.153585   -3.985797   -0.272141
H      -2.604898   -2.192961    0.294578
H      -2.057862    0.113343    0.366225
