20

C      -0.642624   -0.188515   -0.787859
O      -1.153085   -0.540227    0.488599
C      -0.193130   -0.861702    1.447667
C       0.755606    0.274123    1.826763
C       0.053489    1.454912    2.333237
N      -0.496271    2.389160    2.732535
C      -0.683568   -1.780458    2.523794
C       0.329521   -2.285758    1.511051
C      -0.080514   -3.324150    0.490401
H       0.060788   -0.940422   -1.168528
H      -1.501101   -0.130096   -1.460093
H      -0.146246    0.791271   -0.777855
H       1.451120   -0.076334    2.595749
H       1.368146    0.575569    0.969255
H      -0.373850   -1.600979    3.547522
H      -1.704520   -2.128688    2.412398
H       1.347433   -2.391610    1.879770
H      -1.071669   -3.101765    0.087141
H       0.625352   -3.368760   -0.346034
H      -0.116596   -4.319479    0.945811
