18

C       0.047333    1.570791    0.110800
O       1.467810    1.560862   -0.145997
C       1.412534    0.150786   -0.507590
C       2.462965   -0.713287    0.107161
C       2.149901   -1.720728    0.922859
C       0.738602   -1.986377    1.388194
C      -0.079363   -0.684540    1.406582
C      -0.023629    0.030031    0.053703
H      -0.194344    2.041166    1.071375
H      -0.506903    2.082162   -0.688556
H       1.448374    0.055374   -1.604441
H       3.493674   -0.522889   -0.181065
H       2.932322   -2.377478    1.295618
H       0.256713   -2.735224    0.742432
H       0.757703   -2.429829    2.390182
H      -1.117793   -0.879828    1.694867
H       0.349569   -0.030574    2.174841
H      -0.753996   -0.387820   -0.643595
