18

O       0.302103    1.122240    0.461436
C      -0.006943   -0.181927    0.025467
C      -1.513551   -0.401056   -0.080333
C      -1.924677   -1.859012   -0.362008
C      -2.349793   -2.387323    1.018736
C      -2.895060   -1.112387    1.686115
O      -2.075597   -0.059071    1.213158
C      -4.314842   -0.874589    1.336920
N      -5.422130   -0.697126    1.058401
H      -0.223703    1.272535    1.256103
H       0.451665   -0.308611   -0.961407
H       0.421190   -0.948528    0.694737
H      -1.928798    0.295481   -0.816779
H      -2.764882   -1.894252   -1.059825
H      -1.105718   -2.439349   -0.794610
H      -3.084111   -3.192867    0.972235
H      -1.486984   -2.735868    1.592806
H      -2.817444   -1.137917    2.777416
