12

N       0.047248    1.328718    0.436836
C      -0.009677    0.108037    0.108894
C      -1.268234   -0.580168   -0.192702
C      -1.413160   -1.565118   -1.084575
C      -0.403615   -2.005790   -2.074533
O      -0.701507   -2.690032   -3.016546
O       0.875902   -1.522324   -1.983572
N       1.618549   -1.451493   -0.647368
N       1.182956   -0.713447    0.194947
H       1.000370    1.601158    0.690192
H      -2.121232   -0.224614    0.376418
H      -2.381503   -2.030047   -1.231890
