14

N       0.055164    1.441605    0.058528
C      -0.021036    0.051840   -0.044372
C      -1.182569   -0.632890   -0.141600
O      -1.178917   -1.999547   -0.329048
C      -0.031018   -2.692683   -0.405357
O      -0.018185   -3.890613   -0.578531
C       1.203134   -1.868763   -0.260443
N       2.340373   -2.593261   -0.299880
N       1.202561   -0.580750   -0.098207
H       0.910228    1.732655    0.512583
H      -0.756027    1.881167    0.469539
H      -2.182538   -0.228998   -0.108151
H       2.261254   -3.572834   -0.517022
H       3.230765   -2.127722   -0.311150
