14

O      -0.175445   -0.047372   -0.049355
C      -0.018858    1.142337    0.052690
N      -1.056549    2.081535    0.216277
C      -0.585384    3.376797    0.433991
C       0.731599    3.432692    0.164987
C       1.964461    3.742711    0.993738
O       1.890041    2.827475    2.116792
C       2.387302    2.330393    0.880573
C       1.223744    2.025327   -0.117095
H      -2.019844    1.791827    0.281343
H      -1.243285    4.115828    0.872629
H       2.539096    4.648947    1.130000
H       3.371468    1.877181    0.877486
H       1.638765    1.861800   -1.117685
