16

C      -0.027616    1.317048   -0.202183
O      -0.102599   -0.054100    0.180374
C      -1.357905   -0.572235    0.140181
C      -2.551344   -0.347022    1.072199
N      -3.137957   -1.628095    0.485968
C      -1.736559   -1.983025   -0.021167
C      -1.994157   -1.090720   -1.231268
C      -3.437181   -1.158471   -0.906854
O      -4.488536   -0.975461   -1.431564
H       1.021625    1.605480   -0.125688
H      -0.373381    1.457757   -1.233952
H      -0.625806    1.951239    0.464058
H      -2.294099   -0.493473    2.124440
H      -3.191937    0.532117    0.950759
H      -1.258460   -2.946697    0.063920
H      -1.445744   -1.004299   -2.159871
