15

N      -0.009458    1.321363    0.009788
C       1.119541    2.072533    0.002908
C       2.357668    1.467113   -0.012793
C       2.471014    0.062808   -0.021929
C       1.325862   -0.710771   -0.015019
C       0.969782   -2.085927   -0.019328
C      -0.414897   -2.100761   -0.005774
N      -1.005237   -0.850499    0.007235
C       0.031739   -0.036818    0.001627
H      -0.920906    1.760302    0.021306
H       0.979927    3.144773    0.010410
H       3.241229    2.092313   -0.017960
H       3.456768   -0.392620   -0.034272
H       1.636414   -2.934381   -0.030744
H      -1.049959   -2.978359   -0.004514
