20

C       0.082078    1.540223   -0.013838
C       0.044807    0.014830   -0.001546
O       0.813965   -0.420639    1.125637
C      -1.391150   -0.526884    0.055602
C      -1.593230   -2.050153    0.032374
N      -0.834343   -2.589093    1.193462
C      -2.207311   -2.054666    1.389870
C      -2.122256   -0.518058    1.468320
O      -1.518760    0.105960    2.558125
H       1.119310    1.885445    0.006858
H      -0.397786    1.934132   -0.915183
H      -0.434317    1.939556    0.863506
H       0.515668   -0.360226   -0.926479
H       0.588049   -1.362650    1.256499
H      -1.998301   -0.030584   -0.706570
H      -1.805227   -2.680900   -0.821791
H      -0.898290   -3.604422    1.171368
H      -2.972432   -2.699782    1.804653
H      -3.129162   -0.101053    1.368684
H      -0.561633   -0.031432    2.459547
