19

C      -0.019098    1.527624    0.131616
C       1.301843    0.813334   -0.016679
C       0.002698    0.025241   -0.007867
C       0.029390   -0.638696   -1.407448
O       1.438302   -0.894071   -1.585982
C       1.864453    0.474482   -1.419891
C       1.054992    1.195438   -2.502417
C       0.655286    0.373069   -3.700161
C      -0.246781    0.405776   -2.493576
H      -0.245890    1.912546    1.121723
H      -0.398609    2.144239   -0.672333
H       1.984456    0.778595    0.824281
H      -0.273487   -0.591129    0.839594
H      -0.519111   -1.578305   -1.476558
H       2.950442    0.526375   -1.500083
H       1.076626    2.276950   -2.555295
H       0.310169    0.932334   -4.563221
H       1.203804   -0.533687   -3.924516
H      -1.216427    0.885974   -2.539714
