16

O      -0.042292    1.451563    0.010418
C       0.033716    0.036487    0.001985
C      -1.392078   -0.499747    0.012617
C      -1.430247   -2.039167    0.004686
C      -2.777945   -2.586315    0.014325
C      -3.898381   -3.038402    0.022706
C      -5.246360   -3.542315    0.032803
O      -5.543010   -4.715625    0.030741
H       0.852540    1.803637    0.003793
H       0.564148   -0.331800   -0.892108
H       0.581005   -0.341456    0.881776
H      -1.909564   -0.120356    0.899372
H      -1.926304   -0.110749   -0.859941
H      -0.902290   -2.424991   -0.878204
H      -0.885499   -2.434379    0.873134
H      -6.024318   -2.751612    0.043206
