14

N       0.133276    1.394548    0.128388
C       0.002314    0.005856    0.020421
C      -1.127300   -0.800745    0.009256
O      -2.389335   -0.274415    0.017547
C      -0.709071   -2.145584   -0.037013
C       0.681259   -2.138649   -0.061467
N       1.090425   -0.818560   -0.024387
C       1.598912   -3.201568   -0.125045
N       2.366696   -4.071320   -0.174478
H      -0.761227    1.805873    0.369181
H       0.459578    1.831019   -0.729146
H      -3.016773   -0.967796    0.240530
H      -1.329544   -3.027409   -0.076943
H       2.044279   -0.509560    0.056510
