21

C       0.243586    1.282758   -0.311012
O      -0.068761   -0.058294    0.015477
C       0.502840   -0.496451    1.206153
C       1.959503   -0.886269    1.221100
C       0.877114   -1.946122    1.339217
C       0.500967   -2.410745    2.730110
O       1.502011   -3.270457    3.258697
C       0.313961   -1.104163    3.544271
C      -0.123235   -0.036506    2.520825
H       1.329439    1.439234   -0.380498
H      -0.210079    1.487545   -1.283591
H      -0.162973    1.992584    0.423401
H       2.467431   -0.850808    0.263801
H       2.588094   -0.658576    2.075074
H       0.742661   -2.622844    0.504095
H      -0.458559   -2.948897    2.665771
H       1.199440   -3.584364    4.116886
H      -0.400162   -1.219395    4.364860
H       1.280043   -0.845947    3.989693
H       0.170771    0.974703    2.822354
H      -1.211771   -0.037292    2.390544
