19

N       0.753643    0.233505   -0.842025
C      -0.414744    0.593162   -0.232796
O      -0.684860    1.754977    0.016947
C      -1.361640   -0.541134    0.094884
C      -2.081486   -0.357567    1.422603
C      -2.823522   -0.127309    0.145735
C      -1.009559   -1.908483   -0.427133
C      -0.120374   -2.831226    0.338976
N      -1.545114   -3.145465    0.149450
H       1.441000    0.958225   -0.972066
H       1.056094   -0.724804   -0.867081
H      -2.315149   -1.235931    2.015608
H      -1.789079    0.514369    1.995019
H      -3.039736    0.897432   -0.129513
H      -3.547356   -0.871451   -0.167635
H      -0.959206   -1.954308   -1.514445
H       0.568197   -3.496517   -0.175387
H       0.208964   -2.500860    1.321043
H      -2.055276   -2.950722    1.006988
