16

C      -0.045399    1.493476    0.009543
C       1.463574    1.260016   -0.005759
C       1.191462    0.096648    1.003582
C       2.153135   -1.046501    0.713970
N       1.518635   -2.168029   -0.023703
C       2.139331   -1.038994   -0.761667
C       1.172507    0.106941   -1.021600
N       0.016484   -0.038107    0.001188
H      -0.499644    1.902362    0.916717
H      -0.516499    1.911508   -0.884776
H       2.285440    1.987113   -0.009757
H       0.893943    0.311308    2.031157
H       3.036796   -1.212027    1.318932
H       2.178449   -2.945402   -0.033839
H       3.011503   -1.198272   -1.384709
H       0.855830    0.332004   -2.041193
