25

C      -0.274060    1.475316   -0.039285
C      -0.027284   -0.036141   -0.083844
C       0.863879   -0.515675   -1.245696
C       2.281885    0.068223   -1.160678
C       0.879897   -2.056855   -1.292932
C       1.456888   -2.639551   -2.571349
C       1.208028   -4.136738   -2.867799
C       0.542656   -3.622380   -4.159155
O       0.698173   -2.249497   -3.747442
H       0.645651    2.038296    0.145810
H      -0.698213    1.833065   -0.984393
H      -0.978854    1.731567    0.758178
H       0.416704   -0.363836    0.867124
H      -0.995265   -0.548256   -0.156783
H       0.405527   -0.173847   -2.183749
H       2.268960    1.161340   -1.187328
H       2.774241   -0.236401   -0.228441
H       2.909304   -0.263968   -1.992806
H       1.450326   -2.453217   -0.439728
H      -0.147305   -2.429436   -1.187952
H       2.510635   -2.352123   -2.691937
H       2.093773   -4.761189   -2.992834
H       0.524021   -4.618308   -2.165313
H       1.097923   -3.836775   -5.081878
H      -0.509603   -3.889228   -4.312563
