14

O      -0.028135    1.358868    0.158081
C      -0.005291    0.006214    0.039505
C      -1.224001   -0.604337   -0.009983
C      -1.527594   -2.014747   -0.144462
O      -2.660861   -2.413740   -0.388223
C      -0.486387   -3.053463    0.135871
N       0.798885   -3.035081    0.121471
C       1.588878   -1.936442   -0.092440
C       1.285348   -0.613943   -0.078438
H       0.869994    1.703194    0.200826
H      -2.096283    0.040387    0.034545
H      -0.954240   -4.015910    0.358275
H       2.636653   -2.193931   -0.231414
H       2.129831    0.067195   -0.175483
