17

C      -0.015857    1.508769   -0.228342
O       1.359121    1.635319    0.211135
C       1.464504    0.209957    0.449866
C       1.412340   -0.248216    1.916180
C       0.452262   -1.465940    1.750140
N      -0.618416   -0.432147    1.405443
C       0.125533    0.446284    2.403194
C      -0.039118    0.010338    0.104781
H      -0.703136    2.152937    0.332102
H      -0.112237    1.726297   -1.298867
H       2.256809   -0.250101   -0.146956
H       2.339175   -0.276853    2.490196
H       0.651016   -2.202447    0.965134
H       0.209175   -1.968056    2.688375
H      -0.169962    0.159260    3.413887
H       0.025725    1.523785    2.275203
H      -0.340377   -0.673675   -0.687993
