15

O       0.645383   -0.101429   -0.566871
C       0.531331    1.036107   -0.188285
C       1.370794    2.196692   -0.708990
N       2.516304    1.786992   -1.491706
C       3.778053    1.720147   -0.741993
C       3.758346    0.902001    0.476787
C       3.694971    0.245224    1.482239
C      -0.515872    1.412250    0.783063
N      -1.318099    1.743129    1.547465
H       0.679450    2.810095   -1.311404
H       1.669961    2.829295    0.133628
H       2.317655    0.877598   -1.899511
H       4.546147    1.346630   -1.427608
H       4.074965    2.744088   -0.482030
H       3.651884   -0.348933    2.361873
