17

C      -0.230255    1.635052    0.048955
C       0.054869    0.128939   -0.037228
C       0.984967   -0.303126   -1.194121
C       1.672234   -1.539976   -0.608624
O       1.772429   -1.284769    0.805526
C       0.880714   -0.341730    1.193526
O       0.787981    0.047929    2.318589
C      -1.187351   -0.645106   -0.055718
C      -2.203616   -1.286642   -0.079850
H       0.706512    2.199901    0.036934
H      -0.848539    1.956899   -0.792593
H      -0.753983    1.858297    0.980491
H       0.451465   -0.512860   -2.121915
H       1.719598    0.486777   -1.380480
H       1.078971   -2.448152   -0.758647
H       2.682713   -1.704815   -0.986434
H      -3.106089   -1.846803   -0.088827
