19

C      -0.139174    1.632865   -0.200951
C      -0.031964    0.123727   -0.133579
C      -1.212344   -0.546076    0.576199
C      -1.401715   -0.055526    1.942064
N      -1.555096    0.349984    3.013012
C       0.588736   -0.721458   -1.180767
C       1.786753   -0.059179   -1.857229
C       2.369437    0.126285   -0.433286
N       1.214748   -0.599205    0.208165
H       0.642927    2.091063   -0.806747
H      -1.101248    1.916832   -0.640925
H      -0.093217    2.065992    0.803429
H      -2.137737   -0.373019    0.013929
H      -1.044759   -1.626398    0.617007
H       0.126535   -1.647004   -1.514818
H       2.366950   -0.761615   -2.457570
H       1.585876    0.830407   -2.461050
H       3.284603   -0.442045   -0.260095
H       2.517238    1.146072   -0.068188
