18

C       0.134455    1.481652   -0.138360
O       1.236840    0.560944   -0.036892
C      -0.073240    0.042837    0.001384
C      -0.648541   -0.790655    1.146903
N      -1.390471   -1.576849    0.123416
C      -0.615635   -0.996008   -0.985892
C      -1.273436   -0.673921   -2.338665
O      -0.220403   -1.344353   -3.061195
C       0.388406   -1.807055   -1.840553
H      -0.007147    2.133704    0.722348
H       0.018820    1.959025   -1.110009
H       0.135312   -1.339592    1.684247
H      -1.292499   -0.282858    1.872125
H      -1.322683   -2.584682    0.214593
H      -2.250092   -1.158109   -2.469830
H      -1.355142    0.385418   -2.611939
H       1.438997   -1.506908   -1.758269
H       0.303322   -2.897034   -1.719644
