15

N       0.036573    1.388816    0.123435
C      -0.042611    0.007462    0.040652
N      -1.191267   -0.593123    0.020539
C      -1.177261   -1.965634    0.032453
C      -0.048352   -2.735166    0.029363
N       0.002956   -4.124453    0.087890
C       1.245321   -2.069218    0.016810
O       2.332309   -2.628501   -0.014087
N       1.144853   -0.675327    0.044494
H       0.760503    1.822803   -0.433497
H      -0.868806    1.811119   -0.031350
H      -2.157625   -2.435486    0.034811
H      -0.754064   -4.606980   -0.373419
H       0.914681   -4.470390   -0.184491
H       2.027840   -0.185208    0.099466
