18

C       0.016738    1.552945    0.098810
C      -0.047859    0.028139   -0.023839
C       0.731844   -0.504810   -1.229282
C       0.675403   -2.028505   -1.356374
C       1.319479   -2.533133   -2.647057
N       1.794904   -3.814002   -2.588051
O       1.401700   -1.859449   -3.655594
H       1.050679    1.896773    0.213694
H      -0.393660    2.037872   -0.793652
H      -0.550997    1.909574    0.963937
H       0.338673   -0.429709    0.896967
H      -1.096668   -0.289394   -0.100908
H       0.347490   -0.068155   -2.156735
H       1.780025   -0.186782   -1.160949
H       1.139422   -2.512794   -0.488022
H      -0.372347   -2.361704   -1.367439
H       1.646459   -4.402526   -1.787444
H       2.128966   -4.234289   -3.440012
