20

C       0.047515    1.523319    0.010826
C      -0.056792   -0.002108   -0.111640
C      -1.482049   -0.499168   -0.041708
C      -2.526655   -0.359672    1.091411
N      -3.306631   -1.187142    0.051943
C      -2.689376   -0.207901   -0.970153
C      -2.002927   -1.984300   -0.082049
C      -1.778875   -2.853963   -1.286775
O      -2.458058   -2.893799   -2.282187
H       1.089795    1.850074   -0.042318
H      -0.501001    2.024067   -0.793629
H      -0.364254    1.873408    0.963057
H       0.389840   -0.329109   -1.059428
H       0.526511   -0.479942    0.686342
H      -2.348079   -0.888662    2.032420
H      -2.965773    0.626316    1.263732
H      -3.130034    0.790942   -0.915757
H      -2.684069   -0.589998   -1.989040
H      -1.769167   -2.572727    0.815081
H      -0.875941   -3.502280   -1.186623
