15

O       0.214162    1.596685   -0.013340
C       0.164503    0.192349    0.029215
C       0.553939   -0.363527    1.412563
O       1.335151    0.180362    2.146598
C      -0.322528   -1.585865    1.701714
C      -1.457902   -1.373173    0.738635
C      -1.219046   -0.391648   -0.147102
C      -2.172439    0.051449   -1.186642
O      -3.265835   -0.441698   -1.348989
H       0.865909    1.864319    0.650250
H       0.857964   -0.240919   -0.717232
H       0.239247   -2.507793    1.492526
H      -0.618895   -1.633536    2.754808
H      -2.378437   -1.944641    0.759459
H      -1.817058    0.887775   -1.822279
