20

C      -0.046653    1.538194    0.003308
C      -0.089696    0.038574    0.085916
N       1.122414   -0.722424   -0.242453
C       0.519418   -0.939601    1.078679
C       1.364353   -0.727649    2.302900
C      -0.713019   -1.821888    0.995425
C      -1.955356   -1.043512    1.329560
O      -2.061726   -0.083964    2.340217
C      -1.337762   -0.818616   -0.022818
H       0.920822    1.918795    0.340904
H      -0.189840    1.872131   -1.031032
H      -0.841155    1.992085    0.605539
H       0.929230   -1.491328   -0.881541
H       2.040922    0.120009    2.166642
H       0.743726   -0.553068    3.188499
H       1.979989   -1.611985    2.504929
H      -0.700963   -2.906410    0.941920
H      -2.870849   -1.629273    1.314115
H      -1.250370    0.433301    2.353057
H      -1.860218   -1.044756   -0.947532
