17

C      -0.059815    1.539073    0.043608
C       0.143030    0.051570   -0.036983
O      -0.551353   -0.751370    0.924127
C       0.879487   -0.774946    0.941724
C       1.514709   -1.975443    0.246347
C       1.110098   -1.848338   -1.224165
N      -0.336612   -1.959471   -1.483201
C       0.284839   -0.621047   -1.397136
H       0.714990    2.070658   -0.519837
H      -1.032482    1.820916   -0.374764
H      -0.027223    1.875373    1.082770
H       1.336145   -0.366550    1.842200
H       2.605295   -1.916495    0.339362
H       1.187923   -2.922191    0.687477
H       1.802051   -2.187129   -1.989386
H      -0.476431   -2.190233   -2.465052
H       0.340014    0.002330   -2.283340
