15

C       0.020931    1.505583    0.044713
C       0.023781   -0.000390    0.026790
C      -0.045858   -0.726955   -1.155600
N      -0.047586   -2.062611   -1.240787
C       0.022980   -2.712456   -0.101565
F       0.021654   -4.041243   -0.181699
C       0.097839   -2.137678    1.159570
C       0.097719   -0.748892    1.216985
O       0.170067   -0.169112    2.437945
H       0.934175    1.916708    0.495491
H      -0.040839    1.901417   -0.971679
H      -0.834204    1.912107    0.601229
H      -0.104453   -0.192484   -2.101714
H       0.153766   -2.737721    2.057862
H       0.161686    0.789109    2.340904
