21

C       0.070563    1.454732    0.008430
C      -0.027716   -0.048722   -0.010316
C      -0.925281   -0.812964    0.932114
C       0.575753   -0.960289    1.042570
C       1.332499   -1.941286    0.115573
C       2.304055   -2.915139    0.720789
C       0.320167   -2.297793   -1.001933
C       0.529297   -0.792836   -1.249898
O       1.933215   -0.989410   -0.855742
H       1.064863    1.775943   -0.320205
H      -0.671642    1.917229   -0.653496
H      -0.094809    1.850861    1.015539
H      -1.389524   -0.215548    1.712721
H      -1.552472   -1.631023    0.598727
H       1.097351   -0.571713    1.910659
H       1.777521   -3.619493    1.372859
H       2.826500   -3.479529   -0.056038
H       3.049820   -2.386513    1.323941
H       0.808349   -2.884894   -1.779910
H      -0.662315   -2.708507   -0.768158
H       0.410464   -0.321818   -2.226123
