21

C      -0.194120    1.575811   -0.003989
C       0.003734    0.058858   -0.021476
C       0.795381   -0.470947   -1.265902
C       1.933350   -1.309285   -0.669419
C       2.993642   -0.507993    0.099208
C       2.847847   -1.336333    1.351913
C       2.244642    0.048128    1.321569
C       0.809579   -0.483628    1.171255
C       1.486139   -1.821424    0.738927
H       0.770907    2.094846   -0.019204
H      -0.765518    1.912347   -0.875577
H      -0.734834    1.899501    0.892537
H      -0.986292   -0.415791   -0.006360
H       0.150649   -1.072723   -1.915657
H       1.185446    0.349777   -1.878854
H       2.359150   -2.069609   -1.327324
H       3.879104   -0.019571   -0.288254
H       3.578285   -1.786856    2.007095
H       2.588232    0.937502    1.834000
H       0.264923   -0.521838    2.117751
H       1.004174   -2.786749    0.879093
