17

C      -0.353525    1.566999    0.198763
C       0.010908    0.102220    0.044060
N       1.331545   -0.199567   -0.545966
C       1.089588   -0.576227    0.847951
C       1.878592    0.129162    1.902684
C       1.682248   -0.181750    3.325025
O       2.810773   -0.689100    2.613596
C      -1.092889   -0.752995   -0.342842
N      -1.975013   -1.428191   -0.666270
H       0.536957    2.154958    0.424413
H      -0.787178    1.948010   -0.730005
H      -1.084872    1.702874    1.000537
H       1.286982   -1.008312   -1.160576
H       0.925107   -1.628396    1.071487
H       2.262421    1.109029    1.625106
H       1.899554    0.576913    4.075030
H       0.940411   -0.924368    3.616282
