14

C      -1.213447    0.682596    0.238918
C       0.181410    0.289602   -0.183609
O       1.192733    0.724439    0.311852
C       0.257173   -0.710330   -1.298722
N      -0.738842   -1.268850   -1.925722
C      -0.086432   -2.076139   -2.828040
N      -0.764737   -2.819846   -3.752406
N       1.229860   -2.025664   -2.755835
O       1.454828   -1.099404   -1.730383
H      -1.758270    1.110545   -0.608543
H      -1.776597   -0.201024    0.555289
H      -1.150555    1.404601    1.053129
H      -1.704103   -3.068705   -3.484910
H      -0.237169   -3.565254   -4.180320
