25

C      -0.029941    1.563453    0.098969
C       0.003848    0.035361    0.011477
C      -1.382935   -0.597212    0.033940
C      -1.416116   -2.126970   -0.034502
C      -2.771076   -2.438434    0.611994
C      -2.921047   -1.329873    1.685123
C      -4.341239   -0.763211    1.751353
C      -2.454589   -1.799255    3.067979
O      -2.027568   -0.274190    1.266574
H       0.980888    1.982609    0.100040
H      -0.569631    1.995763   -0.751247
H      -0.536414    1.882397    1.013511
H       0.509929   -0.278652   -0.910614
H       0.580731   -0.375582    0.849303
H      -1.974493   -0.184799   -0.804290
H      -1.323872   -2.509148   -1.054496
H      -0.592714   -2.542977    0.557714
H      -3.571820   -2.354949   -0.130837
H      -2.826816   -3.440214    1.045399
H      -5.060077   -1.539717    2.034913
H      -4.399802    0.043549    2.488261
H      -4.637601   -0.358966    0.778817
H      -1.461242   -2.254800    3.010201
H      -2.395607   -0.947917    3.752359
H      -3.148171   -2.534655    3.489383
