16

O      -0.510919    1.218541   -0.816790
C      -0.041200    0.082053   -0.089571
C      -1.248443   -0.831736    0.191567
C      -1.219700   -1.863707   -0.926555
C      -1.053402   -1.373305   -2.318736
N       0.112001   -1.880440   -1.569532
C       0.904008   -0.825365   -0.915447
H       0.254948    1.744662   -1.068649
H       0.439159    0.414090    0.841208
H      -1.127591   -1.329754    1.159163
H      -2.170287   -0.245304    0.227654
H      -1.678770   -2.831180   -0.743220
H      -1.352096   -2.006438   -3.149739
H      -1.136779   -0.305017   -2.489260
H       1.475600   -0.253757   -1.655897
H       1.622464   -1.318191   -0.249446
