17

C       0.150713   -1.202858    0.004666
C       0.040001   -0.002333    0.026052
C      -0.025221    1.406312    0.055129
C      -1.148928    2.164450    0.075402
C      -0.813656    3.645875    0.048481
C       0.694705    3.676707    0.383738
C       1.222065    2.272421    0.011753
C      -2.479949    1.697819    0.071512
C      -3.634858    1.351179    0.072957
H       0.227298   -2.261536   -0.015931
H      -1.024342    4.054736   -0.949181
H      -1.422165    4.219779    0.753896
H       1.226269    4.478439   -0.134230
H       0.824114    3.839786    1.458136
H       1.999232    1.911441    0.692170
H       1.655188    2.246920   -0.997524
H      -4.645479    1.026014    0.071972
