16

C       0.012307    1.377022    0.023167
O       1.282746    1.936153   -0.028409
C       2.072325    1.658867    1.142666
C       1.898095    0.218439    1.513106
C       0.922918   -0.506192    0.878931
N       0.952054   -1.797585    1.311194
C       1.966906   -1.919040    2.248334
C       2.562372   -0.690608    2.394113
O       0.032403   -0.058393   -0.036067
H      -0.515171    1.666184    0.946805
H      -0.531049    1.706222   -0.862863
H       3.100693    1.901039    0.855914
H       1.784497    2.347473    1.953899
H       0.331795   -2.524738    1.001381
H       2.170359   -2.866927    2.717371
H       3.389811   -0.468609    3.050957
