15

C      -0.027300    1.455170   -0.110749
N      -0.007685   -0.009379   -0.041463
C       0.000671   -0.636940    1.209955
O      -0.007397   -0.034427    2.252726
C       0.003079   -0.808905   -1.171659
O       0.019211   -2.013144   -1.180323
O      -0.007476   -0.018553   -2.286365
C       0.001048   -0.649946   -3.511174
N      -0.008465    0.075818   -4.535308
H       0.855793    1.827005   -0.633011
H      -0.919818    1.803196   -0.633392
H      -0.032306    1.813022    0.917673
H       0.015368   -1.730769    1.116843
H       0.015965   -1.735856   -3.424307
H      -0.000217   -0.505217   -5.372190
