21

O      -0.062446    1.362896    0.069861
C       0.021899   -0.024478    0.013329
C      -0.278433   -0.867364   -1.201010
C       0.763985   -1.969936   -1.352371
C       1.820198   -1.661124   -0.257186
C       1.087757   -0.819321    0.814569
C       0.253503   -1.675140    1.797901
C      -1.073055   -1.992207    1.058688
C      -1.207083   -0.876615    0.026288
H       0.655322    1.729150   -0.458247
H      -0.697201   -0.402431   -2.087496
H       0.326906   -2.966645   -1.219973
H       1.207109   -1.958342   -2.352662
H       2.284063   -2.562180    0.156784
H       2.625218   -1.059634   -0.695414
H       1.772109   -0.152955    1.345190
H       0.783449   -2.571866    2.135281
H       0.032344   -1.075355    2.687408
H      -1.049036   -2.982684    0.589362
H      -1.925166   -1.995387    1.744490
H      -2.172184   -0.407048   -0.129303
