20

C      -0.022943    1.405400   -0.194923
C       1.288422    0.707390   -0.084745
C       2.032580    0.410091    1.198276
C       2.491061    1.154428    2.509485
C       1.054220    1.685636    2.682570
C       0.903066    0.186183    2.217979
C       2.014515   -0.138077    3.268621
C      -0.239922   -0.450196    1.439054
N      -0.029921   -0.046587    0.009608
H      -0.398570    2.046089    0.592309
H      -0.339893    1.713450   -1.189421
H       1.825396    0.530450   -1.012768
H       2.646447   -0.478664    1.005720
H       3.421686    1.696772    2.679333
H       0.737121    1.896471    3.708054
H       0.752112    2.485685    2.012395
H       2.591328   -1.051926    3.102965
H       1.759906   -0.004606    4.323078
H      -0.188596   -1.543249    1.480046
H      -1.238431   -0.142539    1.764759
