21

C      -0.073459    1.508211    0.241761
C      -0.056627   -0.022639    0.101093
C       0.446828   -0.683179    1.398832
C      -1.487825   -0.511257   -0.208958
C       0.834795   -0.501560   -1.044791
O       1.066448    0.342332   -2.169265
C       2.206527   -0.054206   -1.384297
C       2.965454    0.951530   -0.690347
C       3.691575    1.737465   -0.141059
H       0.902926    1.903357    0.525790
H      -0.367540    1.982487   -0.697764
H      -0.794330    1.795874    1.014287
H      -0.221313   -0.447291    2.233777
H       0.483633   -1.774509    1.303270
H       1.450315   -0.330794    1.655577
H      -1.853820   -0.084327   -1.148469
H      -1.528636   -1.602815   -0.294364
H      -2.176077   -0.212288    0.588126
H       0.631167   -1.539836   -1.324483
H       2.837118   -0.788497   -1.888537
H       4.311661    2.446023    0.350659
