18

O      -0.405521    0.444310   -0.701347
C       0.116574    0.985724    0.237299
C       1.283552    1.965579    0.136865
C       1.350842    2.696893   -1.190371
C       1.425029    4.027163   -1.157942
C       1.416405    4.697671    0.203427
C       2.365814    3.890142    1.127647
N       1.267655    2.868421    1.307474
C       0.305852    4.006157    1.036208
H      -0.197921    0.792720    1.287166
H       2.174328    1.322288    0.249365
H       1.320286    2.115879   -2.104838
H       1.475253    4.629057   -2.059269
H       1.480039    5.786576    0.165557
H       3.295594    3.507278    0.699561
H       2.566161    4.376593    2.086910
H       0.079440    4.510186    1.980019
H      -0.620727    3.732039    0.525233
