16

O       0.143843    1.319720   -0.135792
C       0.116794   -0.043578   -0.011174
C      -1.034476   -1.032244    0.196837
C      -0.303769   -0.968310   -1.127432
N       0.520710   -2.202366   -0.896954
C       1.884494   -1.678285   -0.513421
C       1.177664   -0.957066    0.654826
O       1.760729   -0.416869    1.788275
C       0.053690   -2.062306    0.567121
H       0.140182    1.696867    0.752128
H      -2.083166   -0.920814    0.432608
H      -0.641905   -0.645308   -2.103769
H       2.515972   -2.515645   -0.196751
H       2.395333   -1.084783   -1.277344
H       2.352746   -1.069336    2.176747
H      -0.030185   -2.955085    1.184961
