14

O      -0.655815    0.611970    0.690729
C       0.191037    0.914559   -0.108945
C       1.161267    2.031113    0.093710
O       2.390054    1.912622   -0.657170
C       1.495235    2.918456   -1.036142
C       0.896368    3.098711   -2.430048
O       1.166033    4.515523   -2.362461
C       1.803054    4.412489   -1.069904
H       0.320792    0.382658   -1.077793
H       1.257485    2.404125    1.111900
H       1.461560    2.598163   -3.226081
H      -0.172630    2.886537   -2.546474
H       1.311855    5.034874   -0.313317
H       2.874146    4.646900   -1.105778
