18

C      -0.261749    1.372105   -0.641902
C      -0.020979    0.004575   -0.027839
C       1.020453   -0.872428   -0.650441
N       1.257634   -0.248391    0.658978
C      -1.185282   -0.623204    0.647994
C      -1.264791   -1.407883    1.782753
C      -2.633475   -1.722952    1.908538
N      -3.363503   -1.183464    0.936262
N      -2.460659   -0.520981    0.183840
H       0.654804    1.751647   -1.104156
H      -1.026146    1.339815   -1.427034
H      -0.590770    2.090616    0.115889
H       0.896208   -1.950682   -0.624353
H       1.549711   -0.490192   -1.520334
H       1.867078    0.559817    0.559512
H      -0.440730   -1.687519    2.416738
H      -3.117663   -2.316688    2.670288
H      -2.782481   -0.027981   -0.631075
