20

C      -0.061836    1.291788    0.104652
O       0.075338   -0.124985   -0.006528
C       0.642506   -0.547513   -1.168358
O       1.017545    0.192800   -2.053202
N       0.704862   -1.902910   -1.189861
C       1.396139   -2.626335   -2.246884
C       2.905431   -2.732975   -1.987010
C       0.731940   -3.993390   -2.395372
O       0.824637   -4.652883   -1.136261
H       0.911378    1.786004    0.042179
H      -0.704221    1.687022   -0.686998
H      -0.514112    1.469182    1.081252
H       0.469311   -2.414062   -0.353982
H       1.233504   -2.063509   -3.170768
H       3.407537   -3.225275   -2.826699
H       3.332566   -1.733984   -1.871282
H       3.101374   -3.312944   -1.081328
H      -0.318096   -3.857809   -2.691323
H       1.243403   -4.564592   -3.184137
H       0.326790   -5.473543   -1.182440
