18

C       0.111587    1.531737    0.001100
C      -0.013087    0.038073    0.033508
C      -1.179084   -0.632572   -0.006891
C      -1.231606   -2.149001   -0.016154
C       0.138960   -2.710573   -0.388369
O       1.155792   -2.098696    0.386825
C       1.287360   -0.725282    0.105912
C      -2.430143    0.055358   -0.048963
N      -3.464773    0.576803   -0.084925
H       0.773098    1.846304   -0.815731
H      -0.855107    2.020668   -0.129712
H       0.563579    1.900956    0.930045
H      -1.538969   -2.518460    0.969806
H      -1.986790   -2.492882   -0.731597
H       0.196653   -3.782365   -0.183184
H       0.330868   -2.556496   -1.462832
H       1.838139   -0.566960   -0.841219
H       1.912992   -0.306171    0.903418
