12

O      -0.092836   -0.045424    0.004831
C       0.008171    1.142787    0.009481
O      -1.186215    1.908004    0.028621
C      -1.158968    3.242872    0.034744
N      -0.114489    3.987911    0.024832
C       1.089182    3.326982    0.005997
C       1.218516    1.966342   -0.002304
C       2.476597    1.315953   -0.021874
C       3.550810    0.773464   -0.038455
H      -2.158799    3.666237    0.049764
H       1.973466    3.955772   -0.002457
H       4.493613    0.284442   -0.052929
