19

O      -0.036164    1.491590    0.294093
C       0.058888    0.076927    0.182934
C      -1.283319   -0.553304   -0.100064
C      -2.358550   -0.503739    1.000001
O      -2.671290   -1.915273    0.825075
C      -1.590539   -2.083222   -0.120316
C      -2.139763   -1.978092   -1.567543
O      -3.445492   -2.443893   -1.733188
C      -1.892565   -0.426979   -1.529982
H      -0.320699    1.834915   -0.559539
H       0.789478   -0.218121   -0.587486
H       0.445797   -0.268722    1.148182
H      -1.966999   -0.314648    2.006781
H      -3.228384    0.138257    0.822802
H      -0.911628   -2.893433    0.158706
H      -1.505045   -2.478063   -2.305501
H      -3.862830   -2.341448   -0.864360
H      -2.802263    0.174673   -1.603534
H      -1.181875   -0.084359   -2.288793
