19

C       0.043017    1.540755    0.103009
C      -0.025804    0.046713   -0.004742
C      -0.897463   -0.798745    0.837051
N       0.561183   -0.896108    1.037291
C       1.045243   -1.777760   -0.073904
C       0.545990   -0.787284   -1.184390
C      -0.423000   -1.293548   -2.261019
C       1.672614   -0.110977   -1.824506
N       2.556509    0.423556   -2.344456
H       1.031333    1.915692   -0.178031
H      -0.698427    2.012245   -0.552421
H      -0.164401    1.852625    1.130228
H      -1.405960   -0.302809    1.658219
H      -1.432492   -1.654371    0.431781
H       2.129347   -1.883755   -0.037441
H       0.579456   -2.768685   -0.093364
H      -1.269723   -1.812850   -1.807224
H      -0.807439   -0.462884   -2.860048
H       0.083523   -1.989554   -2.936071
