15

C       0.003534    1.476371    0.123399
O       1.288378    2.116861    0.016659
C       2.129466    1.512685   -0.857990
C       3.243250    2.002098   -1.496284
N       3.752842    0.930552   -2.181053
N       3.046125   -0.202390   -2.030567
C       2.050878    0.145714   -1.213807
C       0.997785   -0.671650   -0.653864
C       0.036494   -0.032447    0.024900
H      -0.395217    1.796061    1.090330
H      -0.662128    1.888497   -0.655709
H       3.707092    2.973758   -1.512952
H       4.555836    0.923827   -2.785153
H       1.022036   -1.749962   -0.762889
H      -0.784264   -0.566206    0.492917
