18

C      -0.047371    1.646004   -0.129413
C       0.063197    0.142409    0.090441
C       1.132181   -0.676311   -0.660030
O       1.427635   -0.844568   -1.800654
N       1.661113   -1.329949    0.529154
C       2.147465   -0.202250    1.398791
C       0.702264   -0.449224    1.357036
C      -0.044984   -1.116091    2.485368
O       0.772121   -2.034703    3.178911
H       0.893991    2.160075    0.083651
H      -0.310936    1.851085   -1.171131
H      -0.823117    2.080886    0.508297
H      -0.906686   -0.336758   -0.095098
H       2.690787   -0.570698    2.261312
H       2.583591    0.666291    0.913816
H      -0.376505   -0.371655    3.218567
H      -0.948454   -1.600417    2.078948
H       1.140735   -2.628708    2.511671
