19

C      -0.066034    1.498371   -0.013891
C       0.001250   -0.011208   -0.004024
O       0.596515   -0.472407   -1.221429
C       0.096759   -1.795455   -1.409202
C      -1.045367   -1.926579   -0.359422
C      -0.595812   -2.653641    0.915206
C       0.468452   -1.831925    1.603561
C       0.756897   -0.602760    1.180906
O      -1.307177   -0.560082   -0.039663
H       0.942852    1.914862   -0.070765
H      -0.639920    1.831321   -0.880735
H      -0.546261    1.859352    0.899001
H      -0.270764   -1.883250   -2.436383
H       0.885845   -2.540388   -1.249022
H      -1.956895   -2.359284   -0.776802
H      -1.452167   -2.812366    1.584968
H      -0.211648   -3.650940    0.664667
H       0.989003   -2.272054    2.449868
H       1.539967   -0.003908    1.635074
