17

O       0.305959    0.911093    0.815702
C      -0.053594    0.137030   -0.319313
C      -1.370734   -0.490227   -0.208782
C      -2.469574   -0.977586   -0.117102
C      -3.787418   -1.595364    0.055023
O      -3.697020   -2.936394    0.506420
C      -4.668058   -0.722416    0.993540
C      -6.023306   -1.235042    1.131003
C      -7.145055   -1.653987    1.227893
H      -0.393787    1.556671    0.959744
H      -0.014522    0.734119   -1.244308
H       0.719290   -0.634055   -0.410502
H      -4.292044   -1.659366   -0.915607
H      -3.107943   -2.950167    1.269300
H      -4.178118   -0.668014    1.974162
H      -4.687605    0.300874    0.599640
H      -8.134605   -2.027593    1.320060
