19

C      -0.019449    1.458279   -0.055570
C       1.322598    0.816069    0.129501
O       1.895831    0.998823    1.393484
C       2.605034   -0.108692    1.912510
O       2.010874   -1.349986    1.671149
C       0.664803   -1.544902    2.020020
C      -0.222944   -0.482197    2.614181
C      -0.392516   -0.889876    1.157788
C       0.092086   -0.053591    0.008932
H      -0.426221    1.960633    0.815181
H      -0.249661    1.929223   -1.004757
H       2.034059    0.820939   -0.695931
H       3.602289   -0.190772    1.459215
H       2.696357    0.106681    2.985826
H       0.520238   -2.569492    2.347075
H      -0.980043   -0.822387    3.313314
H       0.185041    0.493104    2.835702
H      -1.275585   -1.481027    0.933159
H       0.002776   -0.565761   -0.945711
