15

C      -0.065735    1.476001   -0.175154
C      -0.014544   -0.042820    0.016188
O       0.649472   -0.277744    1.250155
C      -1.391351   -0.590992    0.068426
N      -2.448758   -1.050093    0.147029
C       0.778103   -0.691710   -1.120615
C       0.445134   -1.991982   -1.716557
O       0.155036   -0.760718   -2.391474
H       0.955488    1.865775   -0.171987
H      -0.543421    1.718838   -1.126392
H      -0.622622    1.939602    0.641337
H       0.669862   -1.228692    1.410685
H       1.817249   -0.359124   -1.123631
H       1.238739   -2.588932   -2.161935
H      -0.427432   -2.541225   -1.369851
