23

C      -0.056707    1.556011    0.034469
C       0.053022    0.022301   -0.091197
C       0.787964   -0.351120   -1.300052
C       1.415065   -0.649781   -2.282190
C       0.706738   -0.591333    1.157492
C      -0.017362   -0.462032    2.525594
C       0.480493   -1.889520    2.876546
C       0.754969   -2.142952    1.363279
C      -0.341836   -2.947719    0.668920
H       0.936065    2.007661    0.123624
H      -0.546606    1.986157   -0.842922
H      -0.638069    1.823287    0.921890
H      -0.965753   -0.379735   -0.178309
H       1.958926   -0.916703   -3.154142
H       1.723611   -0.191093    1.239409
H       0.282439    0.357926    3.182364
H      -1.105628   -0.426290    2.408249
H       1.400237   -1.868895    3.467484
H      -0.230342   -2.561205    3.365716
H       1.725625   -2.592274    1.135427
H      -1.341812   -2.563710    0.901490
H      -0.220026   -2.935373   -0.418596
H      -0.311198   -3.991541    0.999774
