19

C       0.081994    1.506276    0.510376
C       0.033431    0.072820    0.014970
C       1.094520   -0.378920   -0.963708
C       1.120195   -0.874943    0.463379
C      -1.374038   -0.470472   -0.125890
C      -2.237547   -0.022499   -1.326532
O      -2.356207   -1.414458   -1.770876
C      -1.565054   -1.861089   -0.745916
O      -1.213429   -2.977885   -0.532814
H       1.115249    1.855043    0.597885
H      -0.439680    2.187225   -0.173139
H      -0.387202    1.601000    1.496925
H       0.828901   -1.091249   -1.737638
H       1.836011    0.350753   -1.270617
H       1.881759   -0.484315    1.129891
H       0.852850   -1.911597    0.632555
H      -1.907077   -0.395381    0.828479
H      -3.220994    0.395433   -1.104719
H      -1.720041    0.574885   -2.079962
