17

C      -0.057024    1.536479   -0.015634
C       0.096490    0.031795    0.056590
C       1.373443   -0.730354   -0.202082
C       2.584767   -0.028951    0.372205
N       3.197042   -0.755383    1.475586
C       1.947735   -0.034877    1.752676
C       1.953467    0.978263    2.766019
N       1.913969    1.796808    3.582311
C       0.720450   -0.734242    1.198862
H       0.803963    2.066419    0.396518
H      -0.183625    1.856615   -1.055249
H      -0.941408    1.858037    0.543619
H      -0.767444   -0.500514   -0.341503
H       1.422804   -1.555505   -0.903421
H       3.163267    0.767166   -0.080193
H       3.031654   -1.758848    1.418930
H       0.211418   -1.550680    1.698110
