17

C      -0.171202    1.521583    0.331803
C       0.611472    0.226467    0.337898
C       0.364898   -0.788734   -0.801399
C       1.867250   -0.608442   -1.104424
O       1.994130    0.415123   -0.090157
C       2.733678   -1.842738   -0.860997
N       3.545123   -1.737049    0.220172
O       2.661118   -2.811747   -1.592689
H      -0.162248    1.976325   -0.663498
H      -1.211210    1.337017    0.622682
H       0.259979    2.235218    1.040869
H       0.589614   -0.228214    1.337272
H       0.062241   -1.794387   -0.509871
H      -0.298088   -0.423661   -1.587534
H       2.107415   -0.224838   -2.102001
H       3.560936   -0.873216    0.737169
H       4.189474   -2.480378    0.430319
