16

O      -0.101717    1.452725   -0.022465
C       0.016130    0.095243    0.013164
C       0.075744   -1.019962   -0.974667
O       1.187604   -1.687873   -0.379264
C       0.887169   -0.971076    0.847894
C      -0.441029   -1.585864    1.306955
C      -0.684719   -2.807322    2.087452
N      -1.015860   -1.463511    2.638935
C      -1.070469   -0.960942    0.085161
H       0.674013    1.818142   -0.464926
H      -0.083008   -1.093290   -2.042335
H       1.744244   -0.830044    1.505790
H      -1.548831   -3.431314    1.877009
H       0.173379   -3.340719    2.489051
H      -0.303646   -1.180859    3.309539
H      -2.113496   -0.876476   -0.188015
