19

C      -0.231579    1.520258   -0.005189
C       0.047633    0.037482   -0.004310
C      -0.322950   -0.780527   -1.312838
C      -0.355622   -1.863518   -0.269124
N       0.648744   -2.638983   -0.139346
C       1.340880   -2.114090    1.056762
C       0.702342   -0.716623    1.204813
C       1.042147    0.049035    2.460750
N      -0.706209   -0.936678    0.852201
H       0.485611    2.036234   -0.652977
H      -1.237470    1.713476   -0.393261
H      -0.164441    1.962723    0.989578
H      -1.275420   -0.385862   -1.678839
H       0.395946   -0.927529   -2.117720
H       1.179981   -2.687350    1.982939
H       2.416183   -2.114690    0.848009
H       2.062397    0.444120    2.407787
H       0.360211    0.878865    2.648860
H       0.988065   -0.623305    3.323829
