21

C       0.139500    1.492860   -0.070838
C      -0.025858   -0.003038    0.073582
C      -1.242724   -0.616529   -0.613714
C      -1.845494   -1.810146    0.145613
C      -0.762436   -2.752704    0.681576
C       0.113622   -2.039765    1.718241
O       1.210214   -2.841518    2.141427
C       0.608592   -0.703638    1.206318
O       1.199003   -0.747148   -0.103912
H       1.077461    1.823699    0.381790
H       0.151288    1.775786   -1.129437
H      -0.689797    2.024624    0.407969
H      -2.004951    0.157765   -0.753138
H      -0.928122   -0.926564   -1.617990
H      -2.443490   -1.438258    0.988700
H      -2.538179   -2.351803   -0.506873
H      -1.202160   -3.642228    1.142197
H      -0.123701   -3.092704   -0.142729
H      -0.473847   -1.860655    2.628356
H       1.801437   -2.923193    1.383544
H       1.178852   -0.120810    1.931734
