19

C       0.589056    1.113569    0.244393
O       0.612186   -0.282486    0.002024
C       0.444188   -0.615615   -1.344270
O       1.497932   -0.149338   -2.167355
C       2.762960   -0.817162   -2.086260
C       2.782781   -2.062548   -1.182595
C       1.540813   -2.898883   -1.423243
O       0.595708   -2.950811   -0.350545
C       0.289446   -2.132415   -1.471553
H       1.391802    1.631980   -0.292609
H      -0.373452    1.553612   -0.057170
H       0.721018    1.249938    1.319582
H      -0.437843   -0.103212   -1.755580
H       3.032819   -1.096823   -3.112608
H       3.509524   -0.094379   -1.735809
H       3.699193   -2.626452   -1.378784
H       2.783611   -1.762880   -0.132283
H       1.632289   -3.821254   -1.993689
H      -0.549700   -2.469211   -2.076615
