20

C       0.142407    1.545707    0.155177
C       0.082145    0.019928    0.053663
C       0.604016   -0.501138   -1.296599
O       1.914163   -0.023604   -1.554547
C       0.581436   -2.033448   -1.389510
C      -0.697865   -2.747196   -1.016822
C       1.537242   -2.688801   -2.292571
O       1.788853   -2.632147   -0.875837
H       1.162426    1.901389   -0.006687
H      -0.497696    2.016317   -0.599875
H      -0.194570    1.887939    1.138190
H       0.678270   -0.435595    0.856021
H      -0.949837   -0.319020    0.200049
H      -0.027292   -0.098639   -2.100983
H       2.499086   -0.596403   -1.037662
H      -1.537313   -2.367330   -1.609586
H      -0.603696   -3.820031   -1.200547
H      -0.939200   -2.604672    0.040034
H       1.311234   -3.682440   -2.675872
H       2.203734   -2.083009   -2.900015
