18

C      -0.082006    1.519044    0.024173
C       0.048800    0.014288    0.000571
O      -0.703546   -0.666890    1.033440
C       0.713115   -0.714113    1.108053
C       1.394528   -2.027783    0.840368
N       0.539883   -3.180849    0.537829
C       1.355384   -2.580336   -0.550248
C       0.651134   -1.800883   -1.590613
C       0.055430   -0.630367   -1.339190
H       0.731546    1.992174   -0.536006
H      -1.028535    1.827607   -0.433784
H      -0.065199    1.891334    1.051179
H       1.147781   -0.125165    1.916774
H       2.300190   -2.193949    1.418366
H       0.999145   -4.029270    0.861736
H       2.211626   -3.157788   -0.891067
H       0.644864   -2.205171   -2.599244
H      -0.432880   -0.086823   -2.144002
