15

C      -0.117567    1.590170   -0.089121
C      -0.014791    0.042282   -0.033594
C       0.752774   -0.426675    1.243616
C       2.188929    0.072668    1.297674
O       2.656770    0.630102    2.254039
C      -1.370486   -0.535486    0.003312
N      -2.439066   -0.967669    0.070474
C       0.673650   -0.452163   -1.242494
N       1.244191   -0.818065   -2.177477
H       0.882518    2.027994   -0.125945
H      -0.674526    1.907079   -0.972160
H      -0.630511    1.950578    0.805164
H       0.221890   -0.076634    2.131356
H       0.773756   -1.523074    1.259204
H       2.794954   -0.134316    0.389629
