15

C      -0.088695    1.544790    0.055901
C       0.012658    0.018195    0.010268
C       0.770609   -0.515011   -1.230618
C       2.255728   -0.104093   -1.272389
C       0.651985   -1.976292   -1.293623
N       0.561275   -3.128103   -1.330498
H       0.891220    2.021349    0.151577
H      -0.567305    1.938594   -0.847727
H      -0.690549    1.859706    0.913180
H       0.510430   -0.355924    0.912522
H      -0.993162   -0.414707    0.010816
H       0.275236   -0.120485   -2.128160
H       2.752233   -0.525655   -2.149641
H       2.347233    0.983341   -1.318355
H       2.780085   -0.459488   -0.380422
