23

C      -0.653779    1.112709   -0.051918
C       0.227446   -0.112865   -0.231099
C       1.687303    0.073944   -0.739114
C       2.153279   -0.981471    0.298984
C       0.811623   -0.805640    1.040682
O       0.891682    0.059776    2.201005
C       0.093392   -0.844826    2.989330
C       0.095561   -1.900493    1.865234
C      -1.238875   -2.444456    1.378239
H      -0.193125    1.813443    0.649477
H      -0.806571    1.626152   -1.007562
H      -1.641207    0.848441    0.343293
H      -0.281638   -0.867318   -0.843077
H       1.880532   -0.134420   -1.794036
H       2.069229    1.071511   -0.504137
H       2.247184   -1.983794   -0.131435
H       3.044707   -0.760677    0.890401
H       0.588598   -1.115032    3.929200
H      -0.896538   -0.425081    3.216669
H       0.779171   -2.726485    2.087951
H      -1.941754   -1.636282    1.150440
H      -1.117542   -3.048408    0.472478
H      -1.700802   -3.083088    2.139016
