16

N       0.019809    1.371360    0.144825
C      -0.029229   -0.022865    0.053127
C      -1.144495   -0.845870    0.041562
N      -0.621433   -2.124091    0.014267
C      -1.045798   -3.509194   -0.020872
C       0.290208   -4.232913   -0.039201
C       1.300492   -3.344809   -0.019262
C       0.735131   -2.007735    0.013417
N       1.137092   -0.749385    0.033701
H       0.929231    1.710914   -0.141382
H      -0.708470    1.837049   -0.379804
H      -2.200294   -0.638467    0.061860
H      -1.646668   -3.772494    0.858559
H      -1.646951   -3.727296   -0.912437
H       0.362927   -5.310430   -0.063073
H       2.359479   -3.557648   -0.024997
