21

C      -0.079614    1.550607   -0.082752
C       0.012610    0.037173    0.034295
O       0.644630   -0.516782   -1.148190
C       1.602787   -1.477921   -0.689907
C       2.825225   -0.709081   -0.151053
C       2.287587   -0.174712    1.219713
O       2.434064    1.218083    1.434803
C       0.805139   -0.609819    1.193474
C       0.963688   -2.028699    0.596208
H       0.904246    2.009664   -0.160190
H      -0.669332    1.806674   -0.968550
H      -0.585477    1.967095    0.794815
H      -1.014603   -0.359880    0.083943
H       1.803622   -2.178865   -1.501505
H       3.702247   -1.352939   -0.027525
H       3.084445    0.114677   -0.821086
H       2.776493   -0.718693    2.042319
H       3.374800    1.419638    1.440164
H       0.304162   -0.530038    2.159205
H       0.013624   -2.537179    0.417056
H       1.624523   -2.680719    1.174086
