15

O      -0.090608    1.373629   -0.091316
N       0.058279   -0.029489   -0.087386
C      -1.054169   -0.607833   -0.043255
C      -2.565051   -0.431224    0.010315
N      -2.598162   -1.535169   -1.047110
C      -1.585235   -2.023639   -0.012063
C      -2.557024   -1.539954    1.138073
C      -2.063137   -1.257416    2.467612
C      -1.651101   -1.022829    3.572340
H       0.825309    1.668843   -0.131771
H      -3.171734    0.468639   -0.051015
H      -3.466147   -2.069524   -0.923196
H      -1.058159   -2.971332   -0.098445
H      -3.490775   -2.112769    1.155055
H      -1.281331   -0.811419    4.545292
