22

C      -0.024429    1.594344   -0.034165
C       0.036167    0.076243    0.039304
C       1.035514   -0.674275   -0.889743
C       1.405311   -1.621305    0.289869
C       2.866666   -1.990212    0.494929
C       0.729307   -0.607738    1.234226
C       1.391367    0.096257    2.386059
C       0.211365   -0.820587    2.622350
H       0.972355    2.035408    0.073793
H      -0.433124    1.922379   -0.996453
H      -0.663155    2.012623    0.752679
H      -0.972711   -0.337061   -0.085926
H       0.635751   -1.130866   -1.798703
H       1.880741   -0.032928   -1.163204
H       0.800484   -2.535576    0.238584
H       3.498043   -1.096095    0.536016
H       3.016298   -2.549389    1.426048
H       3.229357   -2.618588   -0.326190
H       2.372079   -0.242614    2.704502
H       1.236890    1.164863    2.496753
H      -0.739825   -0.369918    2.890700
H       0.396690   -1.779038    3.098692
