21

C       0.418129    1.654764   -0.135279
O       0.262670    0.255224   -0.212175
C       0.496853   -0.483809    0.981615
C       1.927737   -0.283346    1.504696
C      -0.538873   -0.169265    2.114603
C      -0.919071   -1.520348    2.695262
O      -1.825660   -2.251083    1.863658
C      -0.435382   -2.592492    1.808670
C       0.277320   -1.981063    0.617514
H       1.461933    1.957702    0.027831
H       0.089939    2.057682   -1.096778
H      -0.199678    2.102405    0.656744
H       2.096788    0.735683    1.865078
H       2.116284   -0.961584    2.343557
H       2.655305   -0.501228    0.716820
H      -0.123259    0.495193    2.878085
H      -1.426773    0.309837    1.691306
H      -1.064386   -1.649179    3.765279
H      -0.189677   -3.591631    2.160004
H      -0.349653   -2.047215   -0.275277
H       1.226246   -2.481709    0.404345
