17

C      -0.016518    1.526417   -0.002826
C       0.018627    0.021706    0.016041
C      -0.011131   -0.682035   -1.272274
O      -0.053210   -0.091254   -2.352009
C      -0.010057   -2.144162   -1.178993
C       0.037651   -2.772669    0.012188
N       0.063811   -2.060419    1.185592
C       0.065344   -0.683713    1.184351
N       0.169789   -0.115843    2.456477
H      -0.458739   -0.518797    3.141422
H       0.068578    0.888966    2.440207
H       0.927258    1.975159    0.333125
H      -0.187736    1.843159   -1.033509
H      -0.820180    1.935274    0.624093
H      -0.046364   -2.709447   -2.101450
H       0.051736   -3.850018    0.125992
H       0.265718   -2.535069    2.050181
