20

C       0.113798    1.390054    0.260749
N       0.070192   -0.048273    0.051744
C      -1.034101   -0.649928    0.043383
O      -2.259285   -0.051629    0.247842
C      -3.304607   -1.014108    0.095604
C      -2.635366   -2.381760    0.331557
O      -3.271083   -3.453889   -0.332062
C      -1.215615   -2.136052   -0.209495
C      -1.052313   -2.470231   -1.701544
H       0.577841    1.600297    1.232101
H       0.760756    1.839146   -0.500681
H      -0.864576    1.882340    0.230369
H      -4.094209   -0.773043    0.812916
H      -3.719596   -0.972834   -0.919672
H      -2.578584   -2.571373    1.413231
H      -4.083076   -3.665663    0.138114
H      -0.466505   -2.690206    0.359510
H      -1.761888   -1.915821   -2.323648
H      -0.041858   -2.203112   -2.019425
H      -1.217125   -3.535735   -1.873900
