20

O      -0.050162    1.407051    0.010002
C       0.021182   -0.009815    0.001959
C      -1.404212   -0.546619    0.012497
C      -1.458608   -2.076555    0.005143
C      -2.886003   -2.601113    0.015809
O      -2.841526   -4.020636    0.008037
C      -4.120831   -4.596654    0.017168
C      -3.995358   -6.057685    0.008314
N      -3.929271   -7.210146    0.001500
H       0.846414    1.754313    0.002982
H       0.550417   -0.379212   -0.891820
H       0.567001   -0.388437    0.881799
H      -1.915173   -0.150123    0.898534
H      -1.931585   -0.141085   -0.859723
H      -0.949436   -2.473534   -0.881149
H      -0.932963   -2.482573    0.877616
H      -3.424499   -2.245640    0.910415
H      -3.441147   -2.236444   -0.864812
H      -4.695820   -4.300642    0.910624
H      -4.712679   -4.291340   -0.862035
