23

C      -0.222320    1.572495   -0.022969
C       0.012125    0.062260   -0.012001
O      -1.248499   -0.599999    0.164105
C       0.755129   -0.476531   -1.285508
C       1.916495   -1.316986   -0.706158
C       2.977481   -0.344045   -0.139775
C       2.281044    0.222846    1.139740
C       0.903405   -0.477294    1.134744
C       1.279601   -1.872347    0.586499
H       0.699709    2.137642   -0.182189
H      -0.907004    1.838942   -0.837994
H      -0.677345    1.898855    0.917289
H      -1.813082   -0.355471   -0.576936
H       0.064608   -1.099350   -1.863035
H       1.109513    0.327328   -1.939072
H       2.319661   -2.052348   -1.405371
H       3.900636   -0.873527    0.114489
H       3.241294    0.437442   -0.859175
H       2.830870   -0.062394    2.041517
H       2.215661    1.313069    1.144633
H       0.382763   -0.451850    2.093502
H       0.407658   -2.504181    0.409664
H       1.992212   -2.405247    1.224038
