18

O      -0.039221    1.356393   -0.111142
C      -0.065567   -0.063230   -0.060325
C      -1.531179   -0.513549   -0.027341
C      -2.232992   -0.145818   -1.344535
O      -3.652739   -0.209460   -1.275593
C      -1.595056   -1.990506    0.319331
C      -2.626025   -2.913907   -0.167448
O      -1.306871   -2.921383   -0.730136
H       0.868452    1.636972   -0.258106
H       0.433037   -0.508492   -0.935012
H       0.452842   -0.435338    0.837341
H      -2.013174    0.042662    0.790935
H      -1.895236    0.850971   -1.651492
H      -1.938057   -0.860984   -2.118346
H      -3.948144    0.472350   -0.663770
H      -1.109295   -2.244330    1.264761
H      -2.875420   -3.792073    0.426966
H      -3.411651   -2.536295   -0.814654
