16

C      -0.054950    1.562008    0.037289
C       1.495806    1.461651    0.020056
C       1.848297    0.706097    1.309235
C       2.172272   -0.715292    0.901654
O       2.266469   -0.801807   -0.498256
C       1.318798    0.167094   -0.854877
C       0.015069    0.009724    0.010134
C       0.754744   -0.366218    1.301893
H      -0.525364    2.035847    0.902150
H      -0.460678    1.982119   -0.888008
H       2.138930    2.289198   -0.276590
H       2.238124    1.180752    2.198921
H       2.825983   -1.385656    1.443066
H       1.227628    0.267439   -1.933385
H      -0.822893   -0.614992   -0.296443
H       0.266473   -0.752623    2.185684
