23

C      -0.083429    1.655623    0.108415
C       0.021480    0.132105   -0.026529
C       0.719019   -0.516261    1.164616
C      -0.070715   -0.606589    2.480820
O      -1.191691   -1.474474    2.250670
C       0.079272   -2.065889    2.540530
C       0.902682   -2.102252    1.234673
C       0.295348   -2.935362    0.109774
C       2.358512   -2.486007    1.499112
H       0.906849    2.118671    0.186637
H      -0.589249    2.095812   -0.756412
H      -0.652123    1.937113    1.001359
H      -0.980039   -0.297461   -0.130718
H       0.567416   -0.116357   -0.945416
H       1.690313   -0.036610    1.334859
H      -0.173012    0.122420    3.276961
H       0.130270   -2.739398    3.390319
H      -0.768897   -2.721243   -0.009232
H       0.796229   -2.740937   -0.845144
H       0.403447   -4.004921    0.324663
H       2.448501   -3.554365    1.727993
H       2.981242   -2.280141    0.621512
H       2.775193   -1.927199    2.344407
