18

C      -0.084110    1.500959   -0.249085
C      -0.038040    0.021870    0.021613
O       1.234923   -0.627961   -0.061675
C       0.593870   -0.581815    1.219400
C       1.273531    0.183133    2.285521
C       2.441898    0.903933    2.156277
N       2.743112    1.439069    3.381994
C       1.790612    1.073021    4.298407
C       0.866044    0.289971    3.649976
H       0.668013    2.031702    0.338329
H       0.093986    1.700856   -1.311080
H      -1.072170    1.899477    0.006098
H      -0.843727   -0.554557   -0.439623
H       0.185841   -1.542731    1.541292
H       3.079264    1.045041    1.299743
H       3.551791    2.000675    3.581514
H       1.850953    1.397387    5.324736
H      -0.009554   -0.157270    4.095801
