17

O      -0.049587   -0.023036   -0.006368
C       0.040782    1.171868   -0.013115
O      -1.075638    1.993556    0.024799
C      -0.685470    3.373108    0.018447
C       0.806367    3.332104   -0.042895
C       1.212358    2.062606   -0.061029
C       2.703567    1.911974   -0.079996
C       3.166377    3.383514   -0.344686
C       1.941138    4.310987   -0.043839
H      -1.144416    3.868219   -0.846777
H      -1.071218    3.856916    0.925086
H       3.072437    1.529232    0.879497
H       3.059468    1.218561   -0.847626
H       4.042665    3.656177    0.247469
H       3.445531    3.490722   -1.396610
H       1.829676    5.110215   -0.784731
H       2.027286    4.807215    0.932368
