18

C      -0.031833   -1.242104   -0.004153
C      -0.010456   -0.040072   -0.003800
C       0.020003    1.418227    0.001552
C      -0.653271    2.062738    1.254648
C       0.209287    3.288433    1.567992
C      -0.367448    4.653455    1.738055
N       0.202962    3.933450    2.890234
C       1.507331    3.035908    0.886123
C       1.423354    2.016528    0.035237
H      -0.049630   -2.303709   -0.005137
H      -0.490045    1.768711   -0.908479
H      -1.707133    2.298311    1.088676
H      -0.591348    1.353572    2.086742
H       0.194046    5.529574    1.423865
H      -1.447401    4.757764    1.662788
H      -0.544177    3.541172    3.459390
H       2.380593    3.650071    1.070327
H       2.213825    1.642202   -0.603188
