19

O       0.098829   -0.112038   -0.265613
C       0.056677    1.086853   -0.152278
C       1.267974    1.979927   -0.059884
C       1.308694    3.095978   -1.127327
O       2.217437    4.063168   -0.625096
C       2.104418    4.111492    0.786572
C       0.928336    4.963019    1.341624
C       0.152307    3.664385    1.699673
C       1.375598    2.803890    1.241590
H      -0.921829    1.617404   -0.112470
H       2.153513    1.345843   -0.158152
H       1.679765    2.753383   -2.096188
H       0.304740    3.526904   -1.276960
H       3.096079    4.332442    1.187723
H       1.201682    5.573335    2.205589
H       0.464914    5.609843    0.592981
H      -0.095925    3.549419    2.756488
H      -0.765456    3.516890    1.126196
H       1.846049    2.235168    2.044075
