20

C      -0.367936    1.303377    0.022765
C       0.079713   -0.136399   -0.148674
C       1.205386   -0.373944   -1.163661
C       1.784644   -1.709667   -0.696376
C       1.509381   -1.687391    0.827652
O       0.639433   -0.595303    1.085879
O       1.049767   -2.758010   -1.341560
C       1.663775   -3.946663   -1.490398
N       1.021973   -4.942384   -1.925685
H       0.482981    1.941645    0.280953
H      -0.819742    1.675840   -0.901725
H      -1.109840    1.380364    0.822192
H      -0.783770   -0.766079   -0.417749
H       0.870288   -0.423057   -2.201029
H       1.959976    0.413913   -1.066794
H       2.849363   -1.823732   -0.926676
H       1.052661   -2.639265    1.130660
H       2.427672   -1.541395    1.408596
H       2.729226   -3.926201   -1.218289
H       1.641796   -5.745696   -2.006169
