18

O       0.044989    0.008349    0.348193
C      -0.040948    1.171749    0.068422
C      -1.174157    2.210461   -0.118271
C      -0.037071    3.243220   -0.360648
C       0.256624    4.353262    0.643284
C       1.741029    4.767834    0.515953
C       2.672119    3.575465    0.487815
C       2.247421    2.341187    0.194119
N       0.924055    2.141968   -0.188326
H      -1.853633    2.027754   -0.952607
H      -1.752473    2.370155    0.795028
H      -0.012807    3.635932   -1.384095
H      -0.401299    5.213028    0.484000
H       0.070817    3.977917    1.656836
H       1.880347    5.381586   -0.385788
H       2.008672    5.419002    1.356288
H       3.715267    3.729744    0.739120
H       2.869033    1.454530    0.230508
