17

N      -0.149391    1.299835    0.096115
C       0.144011   -0.042637    0.096383
O       1.274988   -0.476380    0.087896
C      -1.119301   -0.896416    0.113856
N      -0.959800   -2.377995    0.239688
C      -1.910366   -2.382463    1.373511
C      -1.261956   -1.619194    2.504928
C      -1.952957   -0.863373    1.404348
O      -2.943548    0.088158    1.589073
H       0.613438    1.940178    0.249418
H      -1.082084    1.613320    0.314448
H      -1.762089   -0.618963   -0.730031
H      -1.349814   -2.842388   -0.573717
H      -2.660250   -3.150684    1.512225
H      -1.825739   -1.643129    3.434257
H      -0.179612   -1.620623    2.607380
H      -2.819854    0.492052    2.454109
