18

O      -0.154810    1.375903   -0.040858
C      -0.026782   -0.036480   -0.002098
C       0.672753   -0.571759   -1.259505
C      -0.048899   -0.110953   -2.539883
C       0.647937   -0.521898   -3.755209
N       1.214732   -0.854916   -4.705690
C       0.690807   -0.519713    1.276388
C       0.036483   -0.090933    2.505012
C      -0.511256    0.257867    3.515594
H       0.711274    1.764965    0.126833
H      -1.058990   -0.406267    0.021291
H       1.710858   -0.216490   -1.280088
H       0.713226   -1.665906   -1.228299
H      -1.067956   -0.514407   -2.567261
H      -0.143707    0.979173   -2.526567
H       0.758624   -1.614782    1.252842
H       1.728408   -0.154284    1.257954
H      -0.994359    0.568377    4.408752
