15

O      -0.353496    0.272022    0.428738
C       0.296046    0.753733   -0.467209
C       1.369057    1.765259   -0.219190
N       2.388125    1.908287   -1.280309
C       1.513166    3.035609   -1.018294
C       0.571159    3.473129   -2.100629
C       0.926498    3.350266   -3.522546
O      -0.023134    2.470254   -2.914857
H       0.155946    0.477172   -1.527903
H       1.679300    1.819903    0.822099
H       3.308343    2.048199   -0.874064
H       1.911370    3.875423   -0.448097
H      -0.109565    4.271677   -1.802073
H       0.514853    4.050265   -4.247235
H       1.875544    2.886640   -3.781164
