19

O      -0.076253    1.413659   -0.026785
C       0.020848    0.004993    0.026130
C      -1.373738   -0.641138    0.030754
C      -0.980369   -2.054966    0.488710
O      -0.363069   -2.738900   -0.617168
C       0.842226   -2.134794   -1.073705
C       0.775220   -0.593020   -1.184139
C       0.021033   -1.737778    1.596227
C       0.598916   -0.567901    1.323910
H       0.802818    1.772099   -0.190308
H      -2.010561   -0.141923    0.765334
H      -1.861187   -0.639748   -0.946851
H      -1.813819   -2.693563    0.785356
H       1.671882   -2.403743   -0.405828
H       1.045469   -2.583004   -2.050349
H       0.252733   -0.282425   -2.095355
H       1.801512   -0.205136   -1.242388
H       0.270025   -2.417163    2.402453
H       1.404758   -0.090182    1.870756
