15

C       0.124808    1.418839    0.199973
C      -0.097444   -0.062927   -0.061946
O       0.513685   -0.481610   -1.304981
C      -0.237577   -0.393005   -2.404744
O      -1.375254   -0.000352   -2.465526
C       0.509217   -0.865006   -3.659253
O       1.638646   -1.262996   -3.666029
C       0.497826   -0.965738    1.011255
O       0.547608   -0.664545    2.173096
H       1.188135    1.663344    0.132474
H      -0.431625    2.021910   -0.519969
H      -0.219751    1.652001    1.209845
H      -1.171752   -0.280698   -0.125480
H      -0.130804   -0.790475   -4.560448
H       0.865189   -1.942266    0.629269
