27

C       0.241880    1.468439   -0.002939
C      -0.032717   -0.037276    0.089199
C      -1.517299   -0.492776    0.025910
C      -2.275332    0.056241    1.251684
C      -2.220476    0.035378   -1.252147
C      -1.616039   -0.392500   -2.594563
C      -1.496343   -2.042256    0.074006
C      -2.837157   -2.764790   -0.014546
O      -2.563187   -4.156974    0.098397
H       1.316722    1.659682    0.078434
H      -0.091215    1.890869   -0.956141
H      -0.248348    2.029281    0.798641
H       0.523513   -0.544011   -0.708751
H       0.391767   -0.416291    1.028083
H      -2.257147    1.150039    1.275844
H      -3.327725   -0.244019    1.244707
H      -1.831151   -0.306298    2.185562
H      -3.273506   -0.271018   -1.222936
H      -2.241128    1.130811   -1.205697
H      -0.582290   -0.050373   -2.705082
H      -1.618514   -1.480013   -2.718771
H      -2.190794    0.032290   -3.423780
H      -0.862801   -2.428869   -0.732550
H      -1.016557   -2.358165    1.008749
H      -3.512337   -2.434571    0.789250
H      -3.335006   -2.543353   -0.970991
H      -3.397922   -4.630728    0.041042
