14

O      -0.123555    1.346403   -0.199168
C       0.043051    0.002914   -0.060830
C       1.260077   -0.590809   -0.145076
C       1.547894   -1.990195    0.203782
O       2.533548   -2.290969    0.843265
N       0.723904   -2.995302   -0.326649
C      -0.557070   -3.000437   -0.286129
C      -1.471748   -1.977217    0.177855
C      -1.209554   -0.652973    0.239433
H       0.732764    1.761976   -0.352084
H       2.142299    0.024506   -0.308382
H      -1.041226   -3.895322   -0.688481
H      -2.489876   -2.302992    0.371093
H      -2.019504    0.030071    0.478424
