22

C      -0.002656    1.568490   -0.125220
C       1.543435    1.508512    0.019656
C       1.388044    0.108876    0.681500
C       1.329254    0.166970    2.218491
C       0.325950   -0.833274    2.809075
C      -1.084319   -0.551802    2.272348
C      -1.139316   -0.722673    0.746344
C      -0.022031    0.018795    0.011856
H      -0.472235    2.067694    0.727645
H      -0.415469    1.997269   -1.041988
H       2.035486    1.448446   -0.955462
H       2.033820    2.288149    0.609553
H       2.101719   -0.659917    0.368363
H       2.332150    0.005678    2.630432
H       1.030258    1.173847    2.539920
H       0.620071   -1.860354    2.549698
H       0.336857   -0.772396    3.903253
H      -1.817172   -1.216890    2.742772
H      -1.373039    0.470990    2.550807
H      -1.050904   -1.794502    0.520148
H      -2.117131   -0.410007    0.357863
H       0.091990   -0.408747   -0.990877
