18

C       0.387442    1.260023   -0.493579
C      -0.017154   -0.180198   -0.116367
C      -1.531834   -0.326477    0.033629
O      -1.930019    0.525117    1.097378
C       0.523533   -1.197644   -1.104259
O      -0.173782   -1.938851   -1.748879
C       2.069836   -1.282235   -1.254969
C       2.546008   -0.446967   -2.351639
N       2.909305    0.223192   -3.220334
H       1.470624    1.404229   -0.484565
H       0.021400    1.519030   -1.491955
H      -0.059254    1.946447    0.227611
H       0.439219   -0.410315    0.858455
H      -2.021269   -0.054101   -0.912803
H      -1.783093   -1.375772    0.239487
H      -2.888521    0.495226    1.163618
H       2.574101   -0.981532   -0.331383
H       2.315969   -2.326310   -1.468123
