21

C       0.032861    1.516440    0.123722
C       0.032022    0.029864   -0.025648
C      -0.008682   -0.783058   -1.143156
C      -0.065903   -0.353384   -2.578359
C       0.014472   -2.144461   -0.690909
C      -0.013375   -3.369797   -1.551145
C       0.067887   -2.114673    0.686465
N       0.109111   -3.114212    1.691117
N       0.077761   -0.794489    1.073436
H       0.936431    1.881329    0.629419
H      -0.009260    2.000346   -0.854274
H      -0.828620    1.874951    0.702184
H       0.793574   -0.725228   -3.150916
H      -0.964757   -0.731022   -3.082559
H      -0.073314    0.735702   -2.677556
H       0.838129   -3.409436   -2.242440
H       0.019797   -4.277427   -0.939681
H      -0.920052   -3.422905   -2.167353
H       0.935897   -3.697572    1.611396
H      -0.695538   -3.730713    1.643571
H       0.110852   -0.506665    2.036416
