19

C      -0.011247    1.595133   -0.207991
C       0.036297    0.111661   -0.057709
C       0.019554   -1.036106   -1.042872
C       1.272163   -1.660561   -0.435358
C       0.918778   -0.858690    0.844031
C      -0.405847   -1.529115    1.346707
C      -0.930629   -0.952097    2.571266
C      -1.362191   -0.474997    3.587723
C      -1.035508   -0.941909    0.074739
H       0.949533    1.999433   -0.547910
H      -0.770247    1.883694   -0.943621
H      -0.264315    2.082969    0.739920
H      -0.283873   -1.011259   -2.082515
H       1.338590   -2.751472   -0.344952
H       2.179050   -1.278209   -0.912221
H       1.678012   -0.562917    1.564398
H      -0.372483   -2.623250    1.429357
H      -1.745666   -0.058753    4.485892
H      -2.091041   -0.849352   -0.147162
