15

C       0.196056    1.559853    0.054738
O       1.142915    0.531733   -0.231774
C      -0.195889    0.135979    0.073402
C      -0.392253   -0.622230    1.321877
C       0.396186   -0.733991    2.447628
C      -0.280437   -1.585609    3.362151
C      -1.461383   -1.971764    2.771556
N      -1.517390   -1.385481    1.532016
H       0.336961    2.073307    1.004150
H      -0.080995    2.190529   -0.790020
H      -0.759881   -0.232160   -0.787274
H       1.361185   -0.269500    2.576179
H       0.065335   -1.888605    4.338460
H      -2.256693   -2.611003    3.119306
H      -2.274630   -1.486725    0.878556
