15

C       0.048697    0.609337    1.038263
C       0.053938    0.259045   -0.455100
N       0.561471   -1.089837   -0.668636
C       1.776362   -1.278606   -0.934793
O       2.710538   -0.248062   -0.958738
N       3.908550   -0.401642   -1.763877
N       4.210265   -1.532797   -2.128367
C       3.414385   -2.642109   -1.724021
N       2.268543   -2.562661   -1.181140
H      -0.507996   -0.140227    1.607285
H       1.068835    0.652086    1.430979
H      -0.420238    1.585481    1.194507
H      -0.974085    0.273515   -0.831556
H       0.628768    1.011266   -1.009448
H       3.867593   -3.603819   -1.941301
