16

C       0.019485    1.563376   -0.071257
C      -0.014022    0.040948    0.148889
C      -1.389522   -0.537363    0.026122
N      -2.094263   -0.886454    1.068572
O      -3.285412   -1.351051    0.584699
N      -3.318614   -1.293303   -0.780571
C      -2.169002   -0.796688   -1.150330
C      -1.818428   -0.587542   -2.586229
H       1.041692    1.939760    0.026280
H      -0.343809    1.835098   -1.067221
H      -0.606048    2.074563    0.665771
H       0.646983   -0.450433   -0.574981
H       0.368157   -0.198363    1.144953
H      -1.679239    0.475128   -2.809987
H      -0.885381   -1.100850   -2.840960
H      -2.614228   -0.973664   -3.225259
