16

O      -0.100332   -0.020240   -0.004650
C      -0.003724    1.178986   -0.074595
C       1.311998    1.927906   -0.110967
C       1.417246    2.859771   -1.336484
O       0.349499    3.811727   -1.318056
C       0.863715    5.142504   -1.359791
C       2.357263    4.982349   -1.366280
C       2.671252    3.692752   -1.361715
H      -0.902264    1.830008   -0.120974
H       1.382011    2.548716    0.791953
H       2.129218    1.200309   -0.105890
H       1.329974    2.245025   -2.247778
H       0.494202    5.658118   -2.260093
H       0.499811    5.710251   -0.489851
H       3.042479    5.820151   -1.383230
H       3.662728    3.258869   -1.373687
