25

C      -0.108282    1.561827    0.094180
C       0.031778    0.031384    0.044721
C       0.665573   -0.501529    1.340355
C      -1.339905   -0.615260   -0.174232
O       0.781769   -0.383519   -1.107741
C       2.121968    0.044844   -1.232396
C       2.666890   -0.535941   -2.532389
C       4.116335   -0.145684   -2.787591
O       4.514934   -0.737163   -4.015102
H       0.846133    2.055950    0.298220
H      -0.495942    1.938063   -0.857356
H      -0.803349    1.853405    0.887654
H       0.007292   -0.306415    2.192612
H       0.823596   -1.581868    1.268668
H       1.626766   -0.025054    1.554329
H      -1.779619   -0.258893   -1.109896
H      -1.238249   -1.702143   -0.238720
H      -2.021289   -0.375058    0.647132
H       2.190782    1.143806   -1.255504
H       2.733212   -0.299429   -0.383352
H       2.587668   -1.627731   -2.502419
H       2.048934   -0.193417   -3.369044
H       4.207976    0.952610   -2.827661
H       4.750776   -0.492704   -1.954949
H       5.430451   -0.494909   -4.181271
