15

C       0.063814    1.415598    0.140602
N      -0.048141    0.024791   -0.265182
C      -1.236670   -0.647679   -0.077327
N      -1.230607   -1.953961    0.110569
O      -2.606245   -2.307705    0.183413
C      -3.343680   -1.202310    0.059824
N      -4.703581   -1.370507    0.181027
C      -2.553885   -0.100649   -0.109139
H       1.069398    1.770552   -0.097089
H      -0.641892    2.029651   -0.427211
H      -0.121528    1.583176    1.212428
H       0.749056   -0.548686   -0.026503
H      -5.013673   -2.312251   -0.014277
H      -5.257889   -0.674150   -0.293875
H      -2.861115    0.922221   -0.237456
