18

O       0.281390    1.390492    0.044636
C       0.059404    0.010605   -0.089230
C       0.882435   -0.672449   -1.135404
C       1.141515   -0.944456    0.335763
C      -1.395009   -0.339790    0.109343
C      -2.384448    0.029550   -1.017328
C      -2.585289   -1.466780   -1.114801
N      -3.295574   -2.228580   -1.810158
O      -1.678384   -1.761058   -0.107411
H       0.267849    1.606566    0.984093
H       0.425745   -1.461116   -1.721425
H       1.593676   -0.049020   -1.663821
H       2.032133   -0.510274    0.776394
H       0.846779   -1.910555    0.729279
H      -1.724004   -0.049426    1.114288
H      -3.270750    0.592427   -0.722429
H      -1.930180    0.489970   -1.895730
H      -3.146427   -3.207704   -1.560098
