23

C      -0.325592    1.605638    0.041710
C      -0.054923    0.094368   -0.023587
C       0.576415   -0.368281   -1.363957
C       2.098690   -0.366760   -1.389489
C       2.953222    0.869438   -1.198974
C       2.852775   -0.156593   -0.101113
O       2.130146    0.195058    1.043196
C       0.835350   -0.406436    1.130646
C       0.308893   -0.104729    2.526318
H       0.599308    2.179587    0.138880
H      -0.843433    1.942765   -0.861860
H      -0.959563    1.858942    0.896729
H      -1.021240   -0.418789    0.066099
H       0.255956   -1.402430   -1.541342
H       0.172622    0.221513   -2.195962
H       2.522666   -1.107937   -2.061090
H       3.877572    0.936358   -1.763023
H       2.464797    1.819910   -1.021078
H       3.718697   -0.779511    0.117321
H       0.941854   -1.499112    1.021516
H       0.271090    0.972732    2.706350
H      -0.697128   -0.515988    2.655396
H       0.965384   -0.548581    3.279458
