27

C      -0.021447    1.643889   -0.062041
C       0.008620    0.117724    0.057748
C      -1.382794   -0.521239   -0.006105
C      -1.361578   -2.050292    0.117158
C      -2.750291   -2.673960    0.048935
C      -3.543930   -2.642403   -1.288302
C      -4.083329   -4.059888   -0.960363
C      -2.935342   -4.231062    0.079567
C      -1.759512   -5.056405   -0.439189
H       0.985490    2.070214   -0.011196
H      -0.468031    1.957674   -1.012221
H      -0.613673    2.092538    0.743485
H       0.635526   -0.300416   -0.741132
H       0.493813   -0.166446    1.001152
H      -2.011322   -0.101282    0.792020
H      -1.867815   -0.238585   -0.950664
H      -0.727181   -2.465651   -0.677083
H      -0.882092   -2.328638    1.066597
H      -3.372237   -2.238315    0.841265
H      -4.274021   -1.841532   -1.429152
H      -2.874439   -2.649894   -2.154995
H      -5.068436   -4.024666   -0.486680
H      -4.119600   -4.786150   -1.777572
H      -3.246174   -4.627295    1.051809
H      -1.435312   -4.727010   -1.432602
H      -0.894297   -4.995377    0.229485
H      -2.042805   -6.111538   -0.521990
