20

O      -0.248243    1.488534    0.104951
C      -0.010206    0.091478    0.016739
C      -1.371749   -0.582391   -0.106610
C      -1.370655   -2.099461   -0.034769
C      -0.199741   -2.912115   -0.404869
O      -0.531286   -2.687357    0.972841
C      -2.744226   -2.712451   -0.119323
C      -3.021103   -4.049083    0.452275
N      -3.552954   -2.838254    1.107778
H       0.597740    1.929487    0.224571
H       0.614604   -0.143738   -0.859278
H       0.506040   -0.290785    0.908702
H      -2.011090   -0.199367    0.698130
H      -1.846177   -0.273357   -1.045761
H      -0.353390   -3.930657   -0.756802
H       0.721905   -2.440466   -0.738829
H      -3.320246   -2.383559   -0.982393
H      -3.768691   -4.688123   -0.008631
H      -2.198665   -4.565707    0.937199
H      -2.957600   -2.626785    1.907429
