19

C      -0.057724    1.527200    0.253869
C       0.012685    0.032076   -0.088908
C      -1.344940   -0.586065   -0.207037
O      -2.095707   -0.811289    0.993012
C      -1.899082   -1.922389    0.114844
C      -2.958507   -1.826927   -1.010421
C      -4.248344   -1.039656   -0.678773
O      -3.622378    0.221585   -1.036933
C      -2.391267   -0.435290   -1.366220
H       0.945240    1.956829    0.329908
H      -0.606563    2.084040   -0.512431
H      -0.570695    1.678710    1.207636
H       0.549795   -0.112105   -1.034969
H       0.575142   -0.505939    0.682604
H      -1.431291   -2.806997    0.533699
H      -3.000004   -2.647410   -1.723803
H      -5.093720   -1.257563   -1.341261
H      -4.569897   -1.055141    0.366107
H      -1.985796   -0.160290   -2.344134
