16

C      -0.011758    1.548346   -0.032660
C      -0.016872    0.050989   -0.006735
C       0.494354   -1.050782   -0.909935
O       1.136862   -1.775099    0.138907
C       0.473484   -0.909206    1.112787
C      -0.781013   -1.637885    1.566148
O      -1.533053   -1.813288    0.357051
C      -0.991538   -0.928863   -0.595541
H       0.990662    1.951442    0.149631
H      -0.347973    1.921430   -1.005326
H      -0.685503    1.962157    0.727012
H       0.951399   -1.054403   -1.893680
H       1.151413   -0.550627    1.889069
H      -0.556641   -2.622947    1.985482
H      -1.353855   -1.049176    2.300639
H      -1.688246   -0.641690   -1.374780
