21

C      -0.098605    1.323322    0.340831
O      -0.048582   -0.073481    0.152237
C      -1.314903   -0.653102   -0.098322
C      -1.100358   -2.175663   -0.145996
C      -0.261139   -2.579442   -1.370875
O      -0.471185   -2.590843    1.058640
C      -2.482260   -2.846141   -0.239732
C      -2.845492   -3.861755    0.817492
O      -3.226293   -2.545031   -1.146824
H       0.920631    1.662638    0.539521
H      -0.478434    1.837585   -0.554285
H      -0.739785    1.593874    1.193449
H      -2.013816   -0.399153    0.715039
H      -1.744173   -0.296978   -1.043873
H       0.673464   -2.012897   -1.379909
H      -0.023632   -3.645715   -1.324537
H      -0.811440   -2.377527   -2.293169
H       0.220105   -1.938184    1.228199
H      -2.832465   -3.391448    1.805499
H      -3.830388   -4.276439    0.600988
H      -2.091381   -4.654236    0.855327
