17

C      -0.073967    1.546942   -0.110396
C      -0.052230    0.017759   -0.091717
C      -1.438046   -0.582489    0.196646
O      -2.417150   -0.204917   -0.783584
C      -2.591656   -1.226443   -1.759929
C      -2.167855   -2.526741   -1.104294
O      -2.339194   -3.653468   -1.478041
C      -1.406926   -2.099607    0.181865
O      -0.876188   -2.843980    0.959833
H       0.913306    1.947662   -0.356811
H      -0.789240    1.912741   -0.851694
H      -0.366824    1.947735    0.865976
H       0.313875   -0.365911   -1.052822
H       0.633200   -0.358476    0.676535
H      -1.799468   -0.223689    1.167514
H      -3.641332   -1.252134   -2.067317
H      -1.978647   -1.048010   -2.658325
