15

C      -0.049210   -1.252236   -0.117103
C      -0.030734   -0.052427   -0.051686
C      -0.005224    1.404535    0.030470
C      -0.701649    1.913860    1.303519
O       0.038150    1.571370    2.477398
C       1.387632    1.651140    2.366094
N       2.097643    1.849987    1.340524
C       1.438347    1.967717    0.047461
H      -0.063895   -2.312337   -0.177916
H      -0.541397    1.816699   -0.833662
H      -0.799664    3.005827    1.252626
H      -1.691963    1.474147    1.431227
H       1.844964    1.505061    3.342630
H       2.049490    1.448592   -0.696648
H       1.417342    3.025483   -0.245045
