10

N       0.042430    1.252160    0.008842
N       1.260551    1.839327    0.000245
C       2.015925    0.759136   -0.012990
O       3.331889    0.438163   -0.027505
C       3.274554   -0.952064   -0.034558
N       2.108433   -1.508240   -0.026282
C       1.260725   -0.406624   -0.012042
N      -0.032221   -0.085594    0.002248
H      -0.791972    1.815935    0.020016
H       4.236548   -1.440978   -0.046560
