16

C      -0.049357   -1.194237    0.415076
C      -0.022177   -0.035298    0.100770
C       0.020561    1.375674   -0.274379
C       1.396623    1.988249   -0.165016
C       2.048438    2.388257    1.123721
C       1.772266    3.445483    0.068293
N       2.855407    3.727691   -0.845929
C       3.076625    2.634913   -1.458122
O       2.296237    1.556141   -1.185797
H      -0.073588   -2.220009    0.688301
H      -0.342650    1.501167   -1.301814
H      -0.658951    1.948912    0.368238
H       1.406706    2.396366    1.998030
H       3.078373    2.100770    1.305867
H       1.072374    4.248934    0.265519
H       3.841187    2.464156   -2.205846
