20

C      -0.067012    1.588360   -0.175030
C       0.056407    0.065439   -0.038581
C       0.735423   -0.537537   -1.270827
O      -0.066290   -0.255432   -2.407939
C       0.809574   -0.363762    1.232069
C       0.116989    0.047026    2.544158
C       0.788057   -0.580924    3.743994
O       1.238174    0.022759    4.683048
H       0.922098    2.062372   -0.146880
H      -0.536942    1.842999   -1.127181
H      -0.668005    2.021822    0.629092
H      -0.955312   -0.362915    0.001061
H       1.746163   -0.109218   -1.379604
H       0.852771   -1.624635   -1.132349
H       0.398226   -0.565221   -3.190389
H       0.929343   -1.455939    1.224721
H       1.823943    0.057320    1.216164
H       0.102953    1.130216    2.685037
H      -0.923478   -0.310607    2.524963
H       0.849520   -1.695121    3.699241
