18

N       0.102603    1.174328    0.414502
C       0.081944   -0.019691   -0.245205
O       0.973270   -0.399136   -0.980511
C      -1.196535   -0.832659   -0.053298
C      -1.026052   -2.345918    0.087001
C      -0.305483   -2.657339    1.359477
C      -1.780090   -2.334677    1.425453
C      -2.015839   -0.837160    1.303683
O      -1.628002    0.004598    2.379325
H       0.950185    1.717068    0.357660
H      -0.526546    1.317801    1.192443
H      -1.864051   -0.566996   -0.878869
H      -1.110347   -3.059541   -0.720769
H      -0.066869   -3.702491    1.524628
H       0.453518   -1.976747    1.740853
H      -2.498318   -3.046391    1.813438
H      -3.063462   -0.596246    1.111386
H      -0.878923   -0.411802    2.820593
