20

C      -0.096568    1.518016    0.234821
C       0.084649    0.001030    0.224747
N      -1.211567   -0.665103    0.262999
C      -1.821788   -0.970301   -1.027894
C      -1.238217   -2.051038   -0.186698
N       1.200218    2.183829    0.254916
C       1.785027    2.503208   -1.044281
C       1.218190    3.574607   -0.180014
H      -0.709778    1.824177   -0.633333
H      -0.648691    1.804931    1.136242
H       0.680676   -0.295554   -0.658565
H       0.654317   -0.295665    1.111973
H      -2.897846   -0.835767   -1.089948
H      -1.274683   -0.694807   -1.928863
H      -0.303874   -2.494509   -0.528111
H      -1.879806   -2.720718    0.378979
H       2.859645    2.369475   -1.128907
H       1.220318    2.237539   -1.937304
H       0.277378    4.021691   -0.498155
H       1.870826    4.238123    0.380264
