18

O      -0.091149    1.457172    0.066281
C      -0.014419    0.044637    0.004503
C       0.688151   -0.598756    1.225656
C       0.004159   -1.964534    1.436470
C      -1.419562   -1.767262    0.931974
C      -2.154186   -0.528286    1.346198
C      -1.422452   -0.547068    0.012340
C      -2.179658   -0.517486   -1.204649
N      -2.782089   -0.501023   -2.192559
H       0.777644    1.817128   -0.137018
H       0.477448   -0.271602   -0.926999
H       1.767579   -0.687933    1.078186
H       0.534064    0.059619    2.085759
H       0.492658   -2.739914    0.836103
H       0.040326   -2.293990    2.480073
H      -2.005784   -2.637192    0.660094
H      -3.236012   -0.552189    1.296387
H      -1.753712    0.111042    2.124282
