19

C      -0.011014    1.515561   -0.010709
N       1.256605    0.721167    0.038395
C      -0.019240    0.048354    0.002769
C      -0.564961   -1.025712    0.965610
C      -1.821889   -1.064521    0.031672
C      -0.605818   -1.011968   -0.951367
C       0.060506   -2.043708   -0.012638
C       1.305773   -2.814283   -0.020292
N      -0.032207   -3.485376   -0.073844
H      -0.216670    2.086490    0.890827
H      -0.262624    2.028194   -0.936242
H       1.698777    0.713830   -0.878055
H      -0.532578   -1.028522    2.055123
H      -2.390361   -1.995580    0.029773
H      -2.467006   -0.183569    0.051740
H      -0.624276   -1.006244   -2.041188
H       1.895325   -2.918637   -0.927353
H       1.880215   -2.879377    0.900325
H      -0.258949   -3.873648    0.839209
