21

C      -0.046649    1.504175    0.024758
C       0.037195   -0.013296    0.030912
C       0.705209   -0.715358   -1.193922
C       0.536896   -2.134850   -0.585154
C       1.170973   -1.895456    0.775946
C       0.868852   -0.645899    1.141988
C      -1.023955   -2.156532   -0.434079
C      -1.684824   -1.893021    0.894778
C      -1.357320   -0.741186   -0.020497
H       0.949359    1.955707   -0.033623
H      -0.628139    1.863922   -0.831314
H      -0.530467    1.878724    0.933705
H       0.139155   -0.575232   -2.121538
H       1.749567   -0.422485   -1.342795
H       0.930628   -2.976270   -1.155655
H       1.677891   -2.649095    1.365952
H       1.079726   -0.166623    2.090981
H      -1.582568   -2.672916   -1.206393
H      -2.734069   -2.162756    0.970407
H      -1.121096   -2.026861    1.810433
H      -2.168347   -0.185701   -0.479552
