13

N      -0.006092    1.407351    0.149439
C      -0.046564    0.032226    0.052997
C      -1.179175   -0.722355    0.028092
F      -2.371402   -0.112096    0.032767
C      -1.139093   -2.142308   -0.004251
C       0.070079   -2.734501   -0.017158
O       1.220926   -2.025869   -0.010970
C       1.245276   -0.643887    0.010194
O       2.309497   -0.073437   -0.015428
H       0.886670    1.793703   -0.124853
H      -0.812026    1.899993   -0.203045
H      -2.052328   -2.720467   -0.014712
H       0.250037   -3.800092   -0.035550
