16

C      -0.017090    1.588518   -0.030506
C      -0.024512    0.047499    0.004078
C       0.750370   -0.509711    1.236215
C       2.158050   -0.119402    1.229529
N       3.269256    0.196937    1.204471
C      -1.381703   -0.484373    0.007392
C      -2.508861   -0.924941    0.023147
C      -3.778215   -1.415234    0.039504
C      -4.903793   -1.851668    0.054370
H       1.010829    1.959911   -0.055529
H      -0.541908    1.951398   -0.916877
H      -0.516826    1.996823    0.852872
H       0.487536   -0.320109   -0.894925
H       0.282575   -0.147104    2.157802
H       0.686171   -1.601930    1.251611
H      -5.894511   -2.233591    0.067016
