20

C       0.047271    1.627127   -0.034722
C      -0.037095    0.098265   -0.011454
C       0.698381   -0.543392   -1.177302
O       2.080681   -0.247282   -1.100511
C       2.724044   -1.079751   -2.048406
C       2.009815   -2.449747   -1.964518
C       0.644916   -2.104385   -1.287350
C       0.500013   -2.766305    0.007179
N       0.384128   -3.297740    1.027508
H       1.088699    1.956400    0.001223
H      -0.404225    2.036990   -0.945192
H      -0.478939    2.057867    0.821780
H       0.381988   -0.291610    0.921973
H      -1.084570   -0.224657   -0.045844
H       0.293116   -0.152704   -2.128598
H       2.626711   -0.655833   -3.060356
H       3.784916   -1.126519   -1.793854
H       1.864591   -2.899331   -2.948555
H       2.572883   -3.155938   -1.353161
H      -0.201282   -2.407862   -1.909948
