22

C       0.062175    1.552298    0.008190
C       0.022525    0.018174    0.015240
C       0.790636   -0.530503    1.225545
C      -1.441539   -0.516241   -0.009863
C      -2.273013   -0.011197   -1.209338
C      -3.699559   -0.550346   -1.239775
O      -4.362378    0.091674   -2.317468
C      -1.441731   -1.985501    0.014414
N      -1.440343   -3.141898    0.016479
H       1.096475    1.898532    0.095328
H      -0.350499    1.980650   -0.908121
H      -0.495406    1.964565    0.857875
H       0.512019   -0.346120   -0.897446
H       0.797297   -1.623380    1.242453
H       1.829016   -0.186522    1.205418
H       0.343841   -0.179998    2.163759
H      -1.932917   -0.185976    0.917051
H      -2.328307    1.079429   -1.168183
H      -1.771214   -0.276140   -2.146496
H      -3.688838   -1.642219   -1.366267
H      -4.198192   -0.335886   -0.279297
H      -5.228006   -0.313476   -2.422271
