11

O      -0.061996    0.025700    0.004511
C      -0.024605    1.207063    0.009987
O      -1.165092    2.033182    0.029910
C      -0.648924    3.285718    0.028868
C       0.684001    3.296928    0.010397
O       1.117012    1.981015   -0.002123
C       1.085482    4.663993    0.012084
C      -0.101113    5.347861    0.032265
O      -1.202271    4.492969    0.042982
H       2.070989    5.098125    0.000631
H      -0.347772    6.394337    0.041071
