18

C       0.076669    1.471843   -0.366541
C       0.136078   -0.015409   -0.129805
N       1.460441   -0.626446   -0.046318
C       0.636077   -0.575317    1.165769
C       0.968814    0.100632    2.507257
C       0.323613   -1.100303    3.262233
O      -0.814953   -0.734374    4.008806
C       0.029920   -1.750106    1.878376
O      -0.477269   -2.780479    1.526142
H       0.906466    1.976309    0.134524
H       0.143966    1.691397   -1.437307
H      -0.865320    1.887378    0.005960
H      -0.650130   -0.602789   -0.602945
H       1.444604   -1.575317   -0.418197
H       2.034735    0.234329    2.697827
H       0.439150    1.037635    2.689868
H       1.040875   -1.685382    3.857526
H      -1.306938   -1.539634    4.205629
