17

N       0.076938    1.344637    0.129565
C      -0.025616   -0.019789    0.032663
C      -1.148441   -0.781125   -0.041342
C      -0.786780   -2.188902   -0.013333
N      -1.510297   -3.247356    0.018807
O      -2.885061   -2.912545   -0.001583
C       0.709571   -2.290535   -0.013224
C       1.434849   -1.694363   -1.199543
C       1.209768   -0.862525    0.049265
H       0.930935    1.761851   -0.206655
H      -0.749036    1.882860   -0.083889
H      -2.163237   -0.424149   -0.133356
H      -3.298567   -3.780010    0.044124
H       1.185442   -3.091147    0.537310
H       2.443379   -2.051045   -1.382273
H       0.865003   -1.446371   -2.088196
H       2.054758   -0.563127    0.659405
