21

C      -0.044264    1.600627    0.092759
C       0.069372    0.088438   -0.004470
C       0.669054   -0.599840   -1.269877
C       2.048673   -0.029833   -1.696274
C       2.707608   -0.758407   -0.496590
C       4.130961   -1.237616   -0.567211
O       2.430645   -0.041507    0.740621
C       1.124110   -0.649768    0.857584
C       1.413614   -1.615861   -0.320355
H       0.943433    2.066405    0.043462
H      -0.660101    2.007163   -0.717116
H      -0.503522    1.898625    1.042023
H      -0.901311   -0.385594    0.192732
H      -0.023912   -0.887806   -2.060593
H       2.371738   -0.479869   -2.641317
H       2.180313    1.054173   -1.753424
H       4.816227   -0.382370   -0.586765
H       4.377897   -1.850119    0.304973
H       4.297988   -1.829505   -1.472662
H       0.891559   -0.915678    1.891624
H       1.340691   -2.700395   -0.322928
