22

C       0.709196   -0.586487    1.509546
C       0.082853   -0.124828    0.188655
C      -1.339946   -0.644495   -0.052567
C      -2.349530   -0.035154    0.919060
O      -2.358971    1.371683    0.719232
C      -1.896250   -0.593952   -1.508074
N      -2.231795   -2.064534   -1.506076
C      -0.940854   -2.755616   -1.350731
C      -1.553650   -2.162614   -0.146752
H       1.743674   -0.238881    1.589492
H       0.168622   -0.198885    2.378777
H       0.720655   -1.679804    1.582254
H       0.057948    0.969539    0.149489
H       0.723634   -0.448582   -0.639330
H      -3.341419   -0.472092    0.725932
H      -2.077222   -0.287378    1.956151
H      -3.020072    1.755857    1.301832
H      -2.797257    0.011841   -1.614152
H      -1.184454   -0.313983   -2.292205
H      -1.019710   -3.832527   -1.467117
H      -0.049243   -2.318664   -1.795119
H      -1.970318   -2.779762    0.645336
