23

C       0.056077    1.605327   -0.073226
C      -0.079390    0.081242   -0.057453
C       0.767082   -0.599403   -1.134086
C       0.702374   -2.121793   -1.090899
O       0.242154   -2.731869   -0.158586
C       1.268818   -2.821335   -2.325202
O       1.321721   -4.199524   -2.129222
C       1.807693   -4.906720   -3.254063
C       1.815899   -6.388699   -2.921897
H       1.093021    1.915438    0.099273
H      -0.257273    2.026312   -1.035421
H      -0.560875    2.063858    0.705553
H       0.209390   -0.317722    0.919794
H      -1.128640   -0.204045   -0.194927
H       0.484671   -0.255819   -2.139155
H       1.825221   -0.316951   -1.023584
H       0.626646   -2.552357   -3.186114
H       2.264857   -2.395332   -2.549043
H       1.169006   -4.708177   -4.131903
H       2.823327   -4.560259   -3.511841
H       2.459843   -6.583819   -2.060000
H       0.806417   -6.731278   -2.678856
H       2.186424   -6.967571   -3.773138
