25

C      -0.047520    1.597541    0.063185
C       0.044907    0.065019    0.015434
C       0.628973   -0.436684   -1.323778
C       0.020760   -1.766214   -1.801432
C       0.386363   -3.014629   -0.985022
C       0.166970   -2.923367    0.535146
C       1.147949   -1.964702    1.232720
C       0.784374   -0.465939    1.257249
O       1.976764    0.307757    1.409498
H       0.938682    2.052993   -0.053331
H      -0.696788    1.965990   -0.737651
H      -0.459805    1.942345    1.017766
H      -0.980632   -0.321705    0.090063
H       0.431553    0.318136   -2.093990
H       1.721007   -0.509487   -1.249989
H      -1.072791   -1.654807   -1.815410
H       0.316421   -1.942570   -2.843205
H      -0.186699   -3.863357   -1.378587
H       1.443822   -3.258880   -1.157954
H      -0.871887   -2.647562    0.759671
H       0.305485   -3.925707    0.956996
H       1.300093   -2.286700    2.271373
H       2.125818   -2.051060    0.742564
H       0.121916   -0.280027    2.120136
H       2.466634   -0.050766    2.156050
