15

N      -0.074807    1.320827    0.000394
C       0.073307   -0.015833    0.203042
O       0.983808   -0.548978    0.788040
O      -1.003807   -0.672655   -0.332105
C      -0.993679   -2.077739   -0.217520
C      -2.155284   -2.717156    0.571967
O      -2.557093   -3.452081   -0.627445
C      -1.608719   -2.810524   -1.399990
N      -1.379944   -2.845529   -2.629103
H       0.730043    1.894416    0.184101
H      -0.745912    1.639834   -0.677569
H       0.000275   -2.421571    0.070575
H      -1.891003   -3.396610    1.384339
H      -2.929196   -2.011154    0.881562
H      -2.032837   -3.461250   -3.116917
