17

O      -0.071032   -0.043817   -0.009765
C       0.036544    1.141494    0.206148
C       1.259249    1.889760    0.066534
C       2.273171    2.537899   -0.042414
C       3.486126    3.331321   -0.175461
C       3.223135    4.843117   -0.164518
C       2.823806    5.447072    1.199909
O       4.085388    6.138150    1.311839
C       4.480356    5.727806   -0.011444
H      -0.830701    1.748902    0.536879
H       4.169326    3.073258    0.645514
H       4.004237    3.048436   -1.101357
H       2.566812    5.112469   -0.993978
H       1.976095    6.142839    1.172393
H       2.668973    4.730426    2.015983
H       5.443673    5.201218   -0.011625
H       4.540252    6.575668   -0.705487
