19

O       0.362454    1.350847   -0.033495
C       0.249053   -0.057037   -0.090763
C      -1.196904   -0.553749   -0.005868
C      -2.090459    0.053961   -1.097471
C      -2.275034    1.552595   -0.958945
O      -2.016592    2.345735   -1.832898
C      -1.324541   -2.085212    0.189218
C      -1.956805   -1.719141    1.546308
O      -1.769199   -0.308522    1.308138
H       0.208402    1.718675   -0.909704
H       0.714010   -0.475234   -0.997520
H       0.795389   -0.449036    0.773561
H      -1.694903   -0.162930   -2.095478
H      -3.084806   -0.403700   -1.011383
H      -2.696826    1.876070    0.013559
H      -1.974362   -2.597537   -0.521720
H      -0.370742   -2.614196    0.248212
H      -3.016598   -1.976865    1.660268
H      -1.414123   -2.059123    2.435541
