13

N      -0.045393    1.515830    0.034112
C       0.032810    0.052687    0.015894
C       0.655887   -0.524685   -1.187711
C       1.163459   -0.951806   -2.189722
C       0.760534   -0.432923    1.240996
N       1.625913    0.254501    1.924412
O       2.027392   -0.584432    2.907127
N       1.353133   -1.795107    2.766886
N       0.597436   -1.701134    1.767958
H       0.893772    1.904369    0.017331
H      -0.501783    1.825992   -0.818443
H      -0.989853   -0.338131    0.091682
H       1.610660   -1.337507   -3.072985
