20

C       0.051438    1.564308    0.070854
C       0.035801    0.064390    0.002547
C      -0.925430   -0.787681    0.781030
C       0.555820   -0.979011    1.001783
C       1.192284   -1.786732   -0.136278
C       0.838748   -3.255504   -0.275188
O       1.455967   -3.734800   -1.463847
C       0.603854   -0.763540   -1.164369
H       1.040853    1.966242   -0.177140
H      -0.667606    2.002012   -0.632964
H      -0.212433    1.919061    1.072913
H      -1.439787   -0.280902    1.592458
H      -1.528864   -1.547013    0.288540
H       1.000275   -0.822158    1.978682
H       2.282849   -1.701651   -0.111856
H       1.196286   -3.805656    0.611331
H      -0.253890   -3.383674   -0.318977
H       1.193837   -4.651089   -1.590693
H      -0.131250   -1.157249   -1.874424
H       1.382775   -0.244492   -1.727602
