17

C      -0.457857    1.324950   -0.382916
O      -0.508578   -0.080746   -0.469687
C      -1.001238   -0.682481    0.704615
C      -1.042887   -2.171425    0.489675
C      -1.970499   -3.030143    1.291756
C      -2.240477   -2.822093   -0.192135
C      -3.362843   -2.023112   -0.597079
N      -4.271582   -1.382109   -0.916943
H      -0.069157    1.695446   -1.334048
H      -1.455632    1.757398   -0.212871
H       0.207422    1.660214    0.428795
H      -0.349316   -0.449454    1.564794
H      -2.007755   -0.303229    0.947014
H      -0.086602   -2.603563    0.212229
H      -1.642460   -4.015595    1.600516
H      -2.647162   -2.540312    1.983023
H      -2.030792   -3.654273   -0.854915
