19

C      -0.559420    1.270275    0.068614
C       0.112120   -0.087857   -0.096629
C       1.259153   -0.140838   -1.112998
O       2.041783   -1.286908   -0.778398
C       1.720901   -1.726500    0.531912
C       0.832487   -0.629770    1.164164
O       1.631454    0.442113    1.667558
C      -0.064276   -1.145085    2.196680
C      -0.777240   -1.567952    3.067754
H       0.164095    2.026482    0.380223
H      -1.015081    1.591094   -0.873624
H      -1.349433    1.222370    0.823958
H      -0.634972   -0.839852   -0.375201
H       0.903740   -0.248716   -2.143284
H       1.874864    0.767044   -1.049086
H       1.186131   -2.685804    0.495062
H       2.640140   -1.864062    1.114191
H       2.049396    0.141308    2.481187
H      -1.413270   -1.938501    3.833654
