21

O       0.163856    1.405340    0.169968
C       0.083127   -0.007980    0.046534
C      -1.374333   -0.559959    0.008565
C      -1.293933   -1.803971   -0.894923
C      -2.355476   -2.125399   -1.961053
C      -1.555498   -2.944536   -3.005652
C      -0.117636   -2.335239   -3.013227
C      -0.065164   -1.534182   -1.738527
C       0.686065   -0.557445   -1.235423
H      -0.227779    1.781850   -0.626431
H       0.618212   -0.377361    0.931830
H      -1.781807   -0.750438    1.004611
H      -2.006209    0.202477   -0.465416
H      -1.132817   -2.704864   -0.282166
H      -3.225484   -2.667894   -1.580235
H      -2.717098   -1.191003   -2.409060
H      -1.509334   -3.992055   -2.688240
H      -2.019787   -2.933627   -3.995169
H       0.649328   -3.116492   -3.055577
H       0.048633   -1.692395   -3.884569
H       1.608522   -0.159479   -1.644595
