21

C      -0.088683    1.525362   -0.002355
C       0.025984    0.005244    0.012002
C       1.196558   -0.601987   -0.841118
C       2.102078   -0.444639    0.421793
C       0.780420   -0.598402    1.231193
O       0.611601    0.105979    2.436008
C       0.427075   -2.092712    1.363877
C       0.554316   -2.788349    0.026143
C       0.922236   -2.076003   -1.039518
H       0.873323    2.022640    0.149948
H      -0.492924    1.865657   -0.961940
H      -0.761210    1.866455    0.790107
H      -0.954554   -0.440545   -0.184481
H       1.485228   -0.079257   -1.753794
H       2.892141   -1.185827    0.567418
H       2.509531    0.562483    0.526529
H       1.067661   -0.373583    3.136212
H       1.089776   -2.565918    2.106548
H      -0.592984   -2.186524    1.761908
H       0.337671   -3.850832   -0.030887
H       1.025934   -2.521129   -2.024168
