16

O       0.061440   -0.015503   -0.026667
C       0.011644    1.186937   -0.058278
C      -1.256622    2.046708   -0.137190
C      -0.821892    3.329158   -0.903420
C      -1.574578    4.528833   -0.564614
C      -2.193744    5.521215   -0.288802
C       0.683584    3.436611   -0.613481
N       0.993826    3.282641    0.803729
C       1.185787    2.122961   -0.121589
H      -2.069602    1.504455   -0.620389
H      -1.566956    2.301166    0.880205
H      -0.928254    3.139601   -1.979891
H      -2.740548    6.396781   -0.039786
H       1.293968    4.084029   -1.233746
H       1.908034    3.684234    0.999146
H       2.179623    1.740648   -0.319962
