19

C       0.004593   -1.037190    0.480255
C      -0.064704    0.146029    0.260121
C      -0.080031    1.538156   -0.001961
C      -1.167644    2.324650   -0.071550
C      -0.839014    3.762662   -0.385318
C       0.697163    3.798771   -0.281773
C       1.304839    3.999012    1.140356
C       2.042869    2.635115    1.019686
C       1.198993    2.317587   -0.248042
H       0.047442   -2.080095    0.674030
H      -2.182380    1.968487    0.066822
H      -1.202441    4.037645   -1.385883
H      -1.317224    4.461655    0.313864
H       1.165042    4.430461   -1.038606
H       1.937272    4.879660    1.274112
H       0.540446    4.005984    1.922531
H       3.104961    2.749875    0.787507
H       1.944776    1.938627    1.855886
H       1.752686    1.921115   -1.104426
