22

C      -0.267473    0.912390   -0.486647
C       1.027290    1.134391    0.209502
N       0.403711   -0.187848    0.195649
C      -0.103046   -0.693219    1.448701
C      -1.282584   -0.132182    2.227346
C      -1.384436   -1.460845    1.521893
C      -2.261116   -1.836617    0.316826
C      -2.155691   -3.325072    0.765404
C      -1.556911   -2.860839    2.126246
H      -1.151788    1.357709   -0.038396
H      -0.305784    0.827582   -1.569096
H       1.952770    1.226458   -0.351966
H       0.992328    1.699486    1.139150
H       0.713043   -1.080382    2.055297
H      -1.215389   -0.122376    3.311542
H      -1.852756    0.694560    1.815630
H      -3.279402   -1.441072    0.387348
H      -1.858100   -1.596800   -0.669784
H      -3.089134   -3.890189    0.809888
H      -1.437686   -3.888283    0.164687
H      -0.648681   -3.367101    2.466445
H      -2.290385   -2.881637    2.939282
