18

C      -0.282012    1.357675   -0.048962
O       0.160819    0.013848    0.110544
C       0.765913   -0.494647   -1.007251
C      -0.030283   -1.047798   -2.180856
C       0.899720   -1.964261   -1.435200
C       2.348410   -1.714688   -1.901415
C       2.183166   -0.272261   -1.426522
N       2.943851    0.721573   -1.234593
O       4.245316    0.460040   -1.711632
H       0.561325    2.029519   -0.246887
H      -1.008420    1.440618   -0.869126
H      -0.762751    1.642585    0.889056
H      -1.082519   -1.173839   -1.945183
H       0.178941   -0.755673   -3.206795
H       0.553770   -2.840882   -0.904556
H       3.107068   -2.235990   -1.311058
H       2.553580   -1.869844   -2.964675
H       4.711623    1.269262   -1.476830
