19

C      -0.247666    1.298400    0.399098
N      -0.223938   -0.156769    0.355444
C       0.704132   -0.740997    0.975869
N       1.819489   -0.336687    1.720421
C       2.175633   -1.696630    2.156613
C       1.695210   -2.135247    3.545477
C       0.203166   -2.447389    3.315541
O       0.129772   -2.961297    1.987701
C       1.039920   -2.227769    1.208019
H       0.754982    1.752507    0.367232
H      -0.817103    1.677697   -0.453949
H      -0.749797    1.658580    1.308461
H       1.911389    0.506420    2.268661
H       3.211359   -1.966905    1.941096
H       2.230968   -3.042663    3.841729
H       1.859080   -1.376954    4.316388
H      -0.198787   -3.206774    3.989517
H      -0.409129   -1.539079    3.411089
H       1.300247   -2.809186    0.323588
