13

O       0.028021   -0.036079    0.002175
C       0.027708    1.151021    0.008629
O      -1.082850    1.944179    0.028886
C      -0.744910    3.351012    0.031607
C       0.748695    3.346617    0.010024
C       1.903535    4.082629   -0.002810
C       2.928608    3.088698   -0.023054
N       2.456463    1.847181   -0.022773
N       1.121687    2.039806   -0.002353
H      -1.197695    3.816003   -0.849534
H      -1.172014    3.806373    0.930422
H       2.020744    5.153466    0.001228
H       3.997446    3.248291   -0.037742
