23

C      -0.012162    1.481181    0.078468
C       0.036764   -0.026598   -0.026766
C       1.056750   -0.647509   -0.988366
C       0.293116   -1.785911   -1.707944
C      -0.866693   -2.178442   -0.761446
C      -0.415107   -3.126032    0.376337
C       0.243464   -2.216517    1.444484
C      -0.361925   -0.835690    1.201520
C      -1.224810   -0.861571   -0.042090
H       0.923829    1.884147    0.483957
H      -0.172343    1.943136   -0.903240
H      -0.823776    1.808879    0.736428
H       1.416412    0.103887   -1.698587
H       1.942753   -1.020813   -0.461208
H      -0.127081   -1.399907   -2.643476
H       0.932235   -2.636118   -1.969286
H      -1.705139   -2.603201   -1.319334
H      -1.298720   -3.607468    0.810143
H       0.246250   -3.924326    0.022980
H       0.022217   -2.563441    2.458247
H       1.336035   -2.209374    1.352905
H      -0.675462   -0.255125    2.063805
H      -2.218615   -0.430760   -0.087215
