12

O      -0.092791   -0.002411   -0.089197
C      -0.093753    1.182069    0.008934
C      -1.140899    2.281483   -0.110710
O      -0.948639    3.098329    1.065157
C      -0.073470    3.309586   -0.025459
C       1.062790    2.270787    0.103628
C       1.923087    2.322336    1.260936
C       2.636519    2.353772    2.227415
H      -2.117678    2.288955   -0.577958
H      -0.040204    4.289213   -0.485371
H       1.641134    2.187181   -0.825968
H       3.260671    2.380569    3.086227
