25

C      -0.284514    1.524863    0.098114
C       0.141889    0.062202   -0.023583
C       1.232362   -0.223361   -1.074558
C       1.684317   -1.661875   -0.755744
C       2.970489   -2.113487   -1.446985
C       1.693685   -1.707654    0.789033
C       2.853199   -0.969876    1.524668
C       1.865989    0.133516    1.993308
C       0.694923   -0.591309    1.263121
H       0.556854    2.172342    0.365839
H      -0.692384    1.893743   -0.849223
H      -1.058123    1.651777    0.863475
H      -0.744123   -0.520901   -0.314057
H       0.873252   -0.108052   -2.102613
H       2.072185    0.475230   -0.950350
H       0.876172   -2.332021   -1.083169
H       3.819498   -1.474554   -1.182875
H       3.230335   -3.141752   -1.172203
H       2.862053   -2.079290   -2.536457
H       1.513534   -2.718947    1.162106
H       3.304126   -1.548156    2.334815
H       3.662996   -0.616150    0.880884
H       1.740884    0.198968    3.076889
H       2.093845    1.137709    1.625846
H      -0.110084   -0.904213    1.932751
