18

C       0.025969    1.585543   -0.041202
C       0.111645    0.057799   -0.058645
C       0.611337   -0.527399    1.275407
C       0.719518   -2.023305    1.270371
C      -0.036741   -2.909128    1.973356
O       0.332566   -4.192522    1.708107
C       1.351228   -4.125860    0.812203
C       1.632792   -2.834349    0.506237
H       1.005159    2.035505    0.158000
H      -0.330770    1.975528   -0.999484
H      -0.661359    1.935736    0.737170
H      -0.871401   -0.371041   -0.287588
H       0.779017   -0.266620   -0.866644
H       1.589534   -0.086138    1.510554
H      -0.064313   -0.215362    2.081150
H      -0.841963   -2.790298    2.680159
H       1.761881   -5.071888    0.499696
H       2.396497   -2.488540   -0.173711
