13

N       0.032050    1.436331   -0.257497
C       0.014463    0.039815   -0.121785
C      -1.138978   -0.669294    0.078352
O      -2.333365   -0.085608    0.243618
O      -1.149346   -1.998272    0.137442
C       0.040824   -2.775934   -0.016671
O      -0.059834   -3.968865    0.040560
C       1.204411   -1.940395   -0.214668
N       1.177214   -0.638659   -0.257390
H      -0.667975    1.903481    0.304008
H       0.956209    1.800496   -0.063715
H      -2.996015   -0.776756    0.377569
H       2.153946   -2.452909   -0.327044
