15

C       0.025623    1.483007   -0.069648
C       0.048583   -0.010497   -0.068534
N       0.693601   -0.867961   -1.111970
C       0.112102   -1.878539   -0.183983
C       0.453266   -1.015587    1.061487
O      -0.880007   -1.093984    1.649958
C      -1.146208   -1.023993    0.227407
C      -2.490264   -1.038327   -0.278211
N      -3.547045   -1.031851   -0.748490
H       1.045007    1.877400   -0.117602
H      -0.533853    1.868032   -0.928166
H      -0.452283    1.846784    0.844820
H       0.170854   -0.833494   -1.990273
H       0.178361   -2.956690   -0.322248
H       1.321838   -1.031151    1.714726
