23

C      -0.212175    1.503525   -0.207278
O      -0.036949    0.111251   -0.076233
C       0.682940   -0.579203   -1.111114
C       0.008797   -0.398179   -2.481168
C       2.146307   -0.112501   -1.163835
C       0.636891   -2.052266   -0.657506
C      -0.757616   -2.612898   -0.500408
C      -1.374029   -3.497455   -1.498961
O      -0.839722   -4.026382   -0.286359
H       0.740045    2.049438   -0.257735
H      -0.814392    1.775690   -1.085224
H      -0.746164    1.831626    0.688486
H       0.109807    0.626608   -2.849538
H       0.474987   -1.057159   -3.220092
H      -1.055322   -0.642314   -2.428045
H       2.603720   -0.184002   -0.172707
H       2.720613   -0.737332   -1.854668
H       2.231879    0.921212   -1.510942
H       1.199109   -2.672851   -1.363270
H       1.145203   -2.120877    0.311564
H      -1.418271   -2.027543    0.136395
H      -2.458611   -3.542587   -1.593406
H      -0.822339   -3.754058   -2.403360
