22

C       0.131952    1.692116   -0.177775
C       0.020666    0.180168    0.050452
C       0.730680   -0.605931   -1.067915
C       2.121938   -0.827612   -0.516712
N       3.145821   -1.130889   -1.192042
O       2.107175   -0.642791    0.834463
C       0.762724   -0.349681    1.315631
C       0.915616    0.642148    2.464068
C       0.141896   -1.658867    1.818521
H       1.176600    2.011089   -0.259423
H      -0.368652    1.963880   -1.112303
H      -0.335243    2.264844    0.627812
H      -1.037922   -0.089365    0.115269
H       0.259617   -1.577224   -1.250756
H       0.769136   -0.080440   -2.023234
H       3.955699   -1.239380   -0.578456
H       1.456316    1.536672    2.149731
H      -0.065216    0.942168    2.845846
H       1.472008    0.180055    3.284501
H       0.786377   -2.113530    2.575859
H      -0.838643   -1.470672    2.267203
H       0.011789   -2.380153    1.006701
