16

C      -0.290000    1.586537    0.025720
C       0.191624    0.136657   -0.005214
C       0.803713   -0.243974   -1.348765
O       0.563788    0.316876   -2.392947
N       1.640694   -1.357529   -1.317096
C       2.174716   -1.885882   -0.161373
C       1.898049   -1.413995    1.069213
C       1.016552   -0.261000    1.237637
O       0.885905    0.335707    2.287941
H       0.554780    2.274422   -0.069563
H      -0.977041    1.777062   -0.799532
H      -0.783050    1.787311    0.977123
H      -0.686645   -0.531347    0.063923
H       2.005696   -1.641704   -2.214800
H       2.863358   -2.708297   -0.321274
H       2.375896   -1.831683    1.945210
