23

C      -0.099483    1.537155   -0.150238
C      -0.026243    0.009818   -0.082778
C      -1.407143   -0.640499    0.056693
C      -1.341913   -2.171175    0.156287
O      -0.622665   -2.514162    1.322258
C      -0.182189   -3.863709    1.353526
C       0.563293   -4.095114    2.655887
C      -2.762412   -2.727314    0.221262
O      -3.464636   -2.919950   -0.736216
H       0.897370    1.976967   -0.252965
H      -0.700418    1.870660   -1.003611
H      -0.553973    1.952548    0.756051
H       0.461976   -0.377088   -0.986986
H       0.596108   -0.300459    0.762473
H      -1.911281   -0.253518    0.952016
H      -2.039258   -0.387573   -0.802380
H      -0.854670   -2.575722   -0.745562
H      -1.039113   -4.552478    1.272657
H       0.470723   -4.061986    0.488086
H       0.926889   -5.125521    2.708080
H       1.419894   -3.419436    2.731720
H      -0.092839   -3.914037    3.511827
H      -3.114978   -2.906819    1.264608
