14

C      -0.000869    1.486047    0.092604
C      -0.001976   -0.000441   -0.043322
C      -0.051833   -0.805391   -1.168995
C      -0.027397   -2.152889   -0.747510
C       0.037252   -2.148900    0.635881
N       0.051730   -0.826801    1.042879
C       0.084249   -3.210818    1.561456
N       0.123510   -4.073212    2.336460
H       0.905839    1.851116    0.589433
H      -0.048052    1.948857   -0.895071
H      -0.860484    1.844986    0.670934
H      -0.100656   -0.448965   -2.186422
H      -0.053195   -3.036161   -1.365602
H       0.095560   -0.530095    2.003527
