23

C      -0.063171    1.401971    0.010175
O      -0.005578   -0.003408    0.002101
C      -1.280801   -0.607168    0.010998
C      -1.115138   -2.143152    0.001196
C      -0.358328   -2.577620   -1.274619
C      -0.334125   -2.591167    1.257593
C      -2.458900   -2.733063    0.010872
C      -3.564436   -3.211658    0.018898
C      -4.897534   -3.798708    0.028449
H       0.964770    1.772796    0.002356
H      -0.589831    1.794701   -0.874173
H      -0.572829    1.785157    0.908560
H      -1.846470   -0.302771    0.906714
H      -1.863381   -0.293248   -0.870478
H       0.623137   -2.098723   -1.306478
H      -0.225943   -3.662837   -1.290442
H      -0.914481   -2.290987   -2.172143
H      -0.872997   -2.314217    2.168598
H      -0.201561   -3.676475    1.259270
H       0.647813   -2.112526    1.275816
H      -4.849554   -4.893394    0.022367
H      -5.460361   -3.498387    0.919342
H      -5.477010   -3.489306   -0.848554
