20

C      -0.204964    1.308751   -0.008708
C      -0.136836   -0.198419   -0.264075
C       0.991131   -0.584013   -1.222322
C       1.125040   -2.080491   -1.445798
O       0.559151   -2.907843   -0.773445
C       2.023641   -2.493945   -2.618644
O       2.436000   -3.837938   -2.567104
C       1.495678   -4.778441   -2.824132
N       1.802688   -5.997506   -2.743074
H       0.725600    1.680552    0.434652
H      -0.373597    1.865992   -0.937152
H      -1.020572    1.554028    0.677891
H       0.002479   -0.739109    0.677149
H      -1.089517   -0.554289   -0.672527
H       0.875578   -0.089353   -2.197655
H       1.961038   -0.230050   -0.840247
H       1.482244   -2.266496   -3.551842
H       2.935026   -1.888788   -2.625703
H       0.523142   -4.361054   -3.111167
H       0.999247   -6.573945   -2.983597
