16

O      -0.069392    1.401124    0.097745
C       0.018580    0.026094   -0.013497
C       1.222628   -0.673860    0.666776
C       1.206392   -2.145827    0.602267
N       1.620755   -1.397811   -0.601861
C       0.389810   -0.812537   -1.286264
C      -0.967082   -1.558248   -1.219355
C      -1.328614   -0.742972    0.049133
O      -2.290682   -0.678888    0.752242
H       0.818817    1.775501    0.066500
H       1.941563   -0.116892    1.264144
H       2.040062   -2.669279    1.061737
H       0.275568   -2.702573    0.625465
H       0.661546   -0.358815   -2.237077
H      -1.620877   -1.266461   -2.048813
H      -0.982471   -2.647707   -1.141063
