21

C       0.085146    1.705921   -0.059405
C       0.074848    0.191310    0.135051
C       0.828843   -0.634596   -0.966939
C       1.785706   -1.444593   -0.069868
C       0.849137   -1.867882    1.096225
C       0.838016   -0.339014    1.374513
C       2.330692   -0.312106    0.873820
C       3.372518   -0.713367    1.873999
O       4.378778   -0.077107    2.076207
H       1.102116    2.106981   -0.117552
H      -0.428577    1.980624   -0.986875
H      -0.426685    2.212673    0.765943
H      -0.968334   -0.138956    0.203063
H       0.160862   -1.280544   -1.544192
H       1.366588    0.009239   -1.669831
H       2.462578   -2.146803   -0.557748
H      -0.104108   -2.336384    0.832520
H       1.342111   -2.458098    1.868686
H       0.560065    0.074532    2.345055
H       2.678043    0.604122    0.390656
H       3.181701   -1.649448    2.443703
