21

C      -1.027567    1.472637    0.207119
C      -0.395833    0.134032   -0.167668
N       0.717812   -0.158537    0.736647
C       0.400961   -0.940114    1.929259
C       1.241072   -1.531949    0.852918
C       0.772637   -2.684473   -0.007308
C       1.389832   -2.780334   -1.408875
N       2.129395   -1.706436   -1.812929
O       1.220951   -3.758770   -2.108744
H      -0.280829    2.270959    0.179789
H      -1.836439    1.724415   -0.485400
H      -1.445636    1.436957    1.218380
H      -1.170863   -0.649598   -0.159834
H      -0.001771    0.178799   -1.189587
H       0.847254   -0.607997    2.862862
H      -0.617289   -1.317920    2.023106
H       2.316872   -1.540000    1.029794
H       1.004505   -3.632888    0.489025
H      -0.313192   -2.679540   -0.140329
H       2.239134   -0.878287   -1.253779
H       2.527394   -1.731461   -2.737301
