19

C       0.015914    1.502948    0.072389
C       1.451932    2.013353   -0.024635
O       2.016462    1.727870   -1.304882
C       1.970849    0.385431   -1.692761
C       3.004555   -0.632376   -1.186864
O       2.734602   -0.938180    0.190018
C       1.927983   -1.568430   -0.810300
C       0.815762   -0.565800   -1.164795
C      -0.018016   -0.033601    0.013782
H      -0.436499    1.853606    1.006739
H      -0.562411    1.937569   -0.752534
H       1.489726    3.102694    0.065351
H       2.067685    1.578712    0.774510
H       1.983825    0.380141   -2.788161
H       4.014066   -0.815195   -1.538012
H       1.911744   -2.651742   -0.825087
H       0.186767   -0.897203   -1.994105
H       0.404936   -0.419422    0.946886
H      -1.049928   -0.393809   -0.047821
