21

C      -0.018175    1.566292    0.123138
C      -0.110219    0.047555   -0.044205
C       0.748219   -0.474649   -1.197704
O       2.086846   -0.094041   -0.939550
C       0.626375   -2.001792   -1.353962
C       1.276275   -2.518242   -2.653432
O       2.624005   -2.118894   -2.777875
C       1.189961   -4.028246   -2.717941
O       2.180664   -4.715189   -2.789774
H       1.017652    1.869618    0.289943
H      -0.380079    2.084467   -0.772185
H      -0.620662    1.905160    0.971378
H       0.216612   -0.449065    0.878199
H      -1.151638   -0.250773   -0.217955
H       0.389686   -0.007492   -2.135432
H       2.643097   -0.575914   -1.566924
H       1.103119   -2.478989   -0.489045
H      -0.432229   -2.290885   -1.358697
H       0.701957   -2.118902   -3.507387
H       3.144386   -2.939602   -2.776818
H       0.173627   -4.468265   -2.677154
