16

C      -0.182408    1.405693    0.176802
C       0.058305   -0.066403   -0.050621
O       1.129373   -0.588867   -0.226987
O      -1.108074   -0.749377   -0.027899
C      -0.997487   -2.170172   -0.217013
C      -2.387479   -2.733771   -0.239977
C      -2.645318   -4.115909    0.180919
O      -2.991297   -3.016441    1.022057
H       0.763282    1.942296    0.111837
H      -0.886559    1.792750   -0.564778
H      -0.631155    1.560784    1.162260
H      -0.474229   -2.371175   -1.158273
H      -0.414109   -2.607881    0.598541
H      -3.059603   -2.276986   -0.966992
H      -3.481307   -4.661390   -0.253503
H      -1.821806   -4.734736    0.535474
