15

O       0.228741    1.124570   -0.569696
C       0.031937   -0.124023    0.044454
C      -0.029487   -0.217233    1.603307
C      -1.284209   -1.132974    1.469890
C      -1.408118   -0.625861    0.031256
C      -2.543482    0.011053   -0.632965
O      -2.045020   -1.273520   -1.047770
H       1.172662    1.268413   -0.684367
H       0.702967   -0.890680   -0.368805
H       0.841152   -0.626815    2.118273
H      -0.279868    0.758944    2.025003
H      -1.031909   -2.196678    1.502050
H      -2.121962   -0.946484    2.144126
H      -3.523207   -0.002032   -0.156834
H      -2.362435    0.825957   -1.330231
