19

C      -0.019651    1.491755    0.017796
C      -0.033749    0.036207    0.016222
C      -0.035970   -1.169007    0.024758
C      -0.049071   -2.602817    0.029061
C      -0.485798   -3.435276    1.221786
O      -1.472389   -2.764749    1.992972
C      -2.378274   -2.778725    0.854291
C      -1.326620   -3.452132   -0.029192
C      -1.592006   -4.483638   -1.084322
H       1.002564    1.878299   -0.063137
H      -0.595342    1.902841   -0.819333
H      -0.449751    1.890401    0.943397
H       0.760279   -3.078413   -0.523273
H       0.141552   -4.169725    1.715964
H      -3.241061   -3.421827    1.062519
H      -2.708536   -1.773242    0.573347
H      -2.024869   -4.029997   -1.983847
H      -0.668231   -4.988486   -1.384017
H      -2.289994   -5.248553   -0.725492
