18

C      -0.094784    1.365106   -0.170704
C       0.183588   -0.107053    0.036481
C       1.564083   -0.667108    0.027242
C       0.774393   -0.666479    1.338086
C       1.217114    0.218268    2.482586
O       2.241878   -0.394470    3.254531
C       0.220912   -1.988854    1.751487
O      -0.087773   -2.870442    0.983483
H       0.719576    1.999067    0.189627
H      -0.218945    1.570977   -1.239377
H      -1.014942    1.676043    0.334932
H      -0.569007   -0.772432   -0.378205
H       1.725293   -1.635469   -0.433117
H       2.395240    0.029757   -0.039277
H       1.529027    1.205055    2.114590
H       0.389962    0.381857    3.183197
H       2.965525   -0.609029    2.655812
H       0.096314   -2.115658    2.848156
