20

C      -0.119800    1.559467   -0.169321
C       0.017263    0.045698    0.087619
C       0.735164   -0.301640    1.415155
C       2.197191    0.117369    1.411976
C       3.134162   -0.548920    2.445000
C       3.894213   -1.067772    1.207477
O       2.927234   -0.477194    0.310439
C      -1.302139   -0.593055    0.060195
N      -2.345404   -1.090989    0.052526
H       0.866362    2.021932   -0.253068
H      -0.660590    1.745312   -1.100282
H      -0.666366    2.045339    0.644437
H       0.609881   -0.397990   -0.721464
H       0.218743    0.177586    2.256184
H       0.677708   -1.384105    1.571525
H       2.287498    1.211560    1.383347
H       3.685697    0.130021    3.096090
H       2.657888   -1.322067    3.051129
H       4.894343   -0.642260    1.060984
H       3.951001   -2.155536    1.088595
