20

C      -0.667071    1.512135    0.316390
C      -0.078173    0.138400    0.100116
C      -0.817683   -1.085526    0.591526
C       0.499609   -0.698520    1.224910
C       1.755429   -1.396245    0.732654
C       1.631463   -1.350972   -0.819594
C       0.815941   -0.060658   -1.119052
C       2.917553   -1.398060   -1.505762
N       3.939805   -1.426618   -2.045069
H       0.115858    2.278811    0.350946
H      -1.358390    1.780895   -0.490910
H      -1.224852    1.560262    1.256771
H      -1.712295   -0.908360    1.179145
H      -0.877988   -1.976482   -0.026442
H       0.489497   -0.334213    2.246611
H       2.641883   -0.838268    1.051943
H       1.867169   -2.423635    1.092594
H       1.058778   -2.221088   -1.156202
H       0.264909   -0.144756   -2.061252
H       1.494926    0.794254   -1.213724
