18

C       0.098664    1.503537    0.016829
C       1.339886    0.674246   -0.012352
C       1.925348    0.437219    1.346173
C       1.071859   -0.287086    2.066397
C       0.753105   -0.568169    3.500556
O      -0.673254   -0.771658    3.513786
C      -1.245442   -0.371648    2.260863
C      -0.137001   -0.670346    1.242732
N      -0.011315    0.040769   -0.042255
H      -0.119823    2.027003    0.944198
H      -0.249675    1.999489   -0.885122
H       1.945327    0.611035   -0.912282
H       2.846124    0.898603    1.681844
H       1.225142   -1.480863    3.886703
H       1.029154    0.261470    4.166138
H      -2.157123   -0.957297    2.122459
H      -1.507721    0.697096    2.263177
H      -0.152035   -1.746505    1.022742
