20

C      -0.051483    1.493103    0.027712
C      -0.054221   -0.002423   -0.063436
C       0.856110   -0.949378   -0.925511
C       1.918678   -0.906663    0.163625
N       0.654154   -0.900130    1.017778
C      -0.015217   -1.861379   -0.010017
C      -1.228995   -0.966504   -0.115227
C      -2.554369   -0.973202    0.563744
C      -2.459737   -1.015511   -0.957484
H       0.967440    1.886760    0.099321
H      -0.521872    1.934370   -0.857759
H      -0.605318    1.823721    0.912296
H       0.942747   -0.981316   -2.017489
H       2.536733   -1.797998    0.314436
H       2.528411   -0.003358    0.268495
H       0.058555   -2.942448    0.120429
H      -2.867780   -1.875355    1.079028
H      -2.905753   -0.054819    1.023407
H      -2.749382   -0.125517   -1.507841
H      -2.711561   -1.945943   -1.456689
