14

O       0.185080    1.427839   -0.178755
C       0.051753    0.021107   -0.059231
C       0.637074   -0.549335    1.241606
C      -0.240673   -1.296261    1.933447
C      -1.501131   -1.307523    1.189385
N      -2.689478   -1.828646    1.329423
O      -3.391830   -1.363769    0.198962
C      -2.574911   -0.595899   -0.561591
C      -1.356156   -0.518295    0.011956
H      -0.309701    1.827686    0.545830
H       0.595791   -0.383288   -0.921616
H       1.658050   -0.332669    1.531533
H      -0.066625   -1.801228    2.873858
H      -3.026311   -0.193093   -1.454955
