23

C      -0.039190    1.576388   -0.246044
C       1.444151    2.036527   -0.255897
C       2.304899    0.768092   -0.008409
C       1.382853   -0.390363   -0.433013
C      -0.027903    0.044346    0.006654
C      -0.359227   -0.324357    1.460787
C       0.518519    0.204927    2.566835
C       1.793486    0.600568    2.558619
C       2.803645    0.657079    1.440438
H      -0.625396    2.098751    0.515681
H      -0.510826    1.794220   -1.209169
H       1.698080    2.479022   -1.224001
H       1.640968    2.802084    0.500352
H       3.199819    0.789451   -0.639974
H       1.408412   -0.495442   -1.524303
H       1.684830   -1.354880   -0.009800
H      -0.785101   -0.446765   -0.614369
H      -1.389077   -0.001671    1.666178
H      -0.387198   -1.422509    1.547584
H       0.021099    0.219883    3.536267
H       2.206418    0.898015    3.522187
H       3.449351   -0.232026    1.522980
H       3.472260    1.506808    1.634910
