19

C      -0.000359    1.614082   -0.026685
C       0.082609    0.093044    0.011200
C       0.783128   -0.695890   -1.098507
C       2.294301   -0.824876   -0.718174
C       2.483288   -0.123507    0.625761
C       1.062185   -0.650292    0.980307
O       0.704988   -0.971411    2.281426
C       1.247225   -1.756932   -0.158266
O       1.027677   -3.105956   -0.204538
H       0.962458    2.075043   -0.264192
H      -0.715323    1.942093   -0.789174
H      -0.343690    2.018029    0.933657
H      -0.912841   -0.337328    0.170147
H       0.474599   -0.824928   -2.128045
H       3.031011   -1.021707   -1.485873
H       3.237767   -0.628224    1.236187
H       2.654181    0.958081    0.646991
H       0.636682   -0.156713    2.792083
H       1.682422   -3.541398    0.353524
