20

C      -0.000509    1.534382    0.048131
C      -0.047914    0.007221   -0.058060
C       0.714584   -0.548924   -1.261950
C       2.274262   -0.392179   -1.188906
C       2.632205   -1.891281   -1.246608
C       1.763457   -2.434892   -2.402035
C       0.697561   -2.095878   -1.339421
O       1.668390   -2.470269   -0.308589
H       1.027470    1.899809    0.144403
H      -0.435593    2.007164   -0.839835
H      -0.559454    1.887735    0.920250
H       0.362464   -0.448468    0.850493
H      -1.095917   -0.315866   -0.121355
H       0.311512   -0.113735   -2.184284
H       2.700377    0.182861   -2.015321
H       2.603069    0.055170   -0.247575
H       3.663194   -2.198610   -1.070775
H       1.752991   -1.907549   -3.359981
H       1.883606   -3.510519   -2.534025
H      -0.259740   -2.612286   -1.256721
