19

C      -0.145302    1.474436    0.279975
C       0.007187   -0.018955    0.031612
C       1.372697   -0.519658   -0.396257
C       0.862573   -0.809100    0.994540
C      -1.193001   -0.675797   -0.555789
C      -2.001654   -1.609200    0.016821
O      -3.015716   -1.961012   -0.819630
C      -2.856571   -1.230101   -1.954059
C      -1.767083   -0.428476   -1.855218
H       0.776123    1.899659    0.690517
H      -0.376208    2.009156   -0.647981
H      -0.956935    1.673151    0.988142
H       1.413878   -1.343394   -1.099920
H       2.166587    0.211065   -0.511467
H       1.309622   -0.276038    1.827006
H       0.578248   -1.829978    1.222249
H      -1.992405   -2.102858    0.974326
H      -3.589661   -1.399065   -2.725641
H      -1.399345    0.252144   -2.607549
