19

C      -0.010866    1.398212    0.020609
O      -0.027622   -0.009474    0.000152
C       0.654899   -0.550779   -1.101314
C       0.646128   -2.082547   -0.977039
C       1.205134   -2.722865   -2.279480
C       1.070240   -4.172027   -2.316673
C       0.939192   -5.365799   -2.347063
C       1.391406   -2.524023    0.197812
C       2.037975   -2.882688    1.144718
H       1.015660    1.792708    0.078221
H      -0.493977    1.826739   -0.872106
H      -0.562768    1.717001    0.907750
H       0.162562   -0.258835   -2.045467
H       1.694311   -0.183908   -1.141209
H      -0.401010   -2.390783   -0.870116
H       0.674384   -2.286235   -3.134992
H       2.260617   -2.445061   -2.387780
H       0.833809   -6.421940   -2.371304
H       2.592587   -3.205194    1.990683
