17

C       0.038460    1.308721   -0.026131
O      -0.010211   -0.100285   -0.054369
C      -1.322971   -0.607871    0.030880
C      -1.241651   -2.099734    0.030413
N      -2.257482   -2.946638    0.019930
C      -1.629538   -4.160599    0.036669
N      -2.341098   -5.343551    0.094946
N      -0.303049   -4.116413    0.048418
N      -0.081111   -2.767535    0.052045
H       1.088841    1.598813   -0.097291
H      -0.512658    1.749366   -0.870648
H      -0.381522    1.709772    0.908772
H      -1.823678   -0.261507    0.950196
H      -1.941276   -0.269268   -0.816128
H      -3.256615   -5.270916   -0.323934
H      -1.820784   -6.142369   -0.237574
H       0.849673   -2.387278    0.051025
