19

C      -0.324762    1.308438    0.175085
N      -0.106490   -0.115393   -0.030008
C      -0.029104   -0.982776    1.136067
C      -1.374982   -1.226040    1.778605
C      -1.512864   -1.406623    3.227619
O      -1.892536   -0.175368    2.609714
C       0.040857   -0.684727   -1.275421
N       0.022133    0.208861   -2.340506
O       0.134482   -1.889886   -1.451770
H       0.604958    1.893106    0.096920
H      -1.046016    1.698612   -0.548833
H      -0.738493    1.459253    1.172582
H       0.386212   -1.934008    0.796931
H       0.648966   -0.542325    1.878207
H      -2.120697   -1.679686    1.125585
H      -2.332669   -2.004236    3.622207
H      -0.628771   -1.357533    3.862580
H       0.400213    1.133470   -2.205566
H       0.311345   -0.234733   -3.198852
