22

C      -0.031084    1.581973   -0.129685
C       0.018258    0.064314    0.079649
C      -1.360630   -0.582488    0.029858
C      -2.135851   -0.622046   -1.319404
C      -2.674052   -2.015823   -0.904478
O      -2.723883   -3.050862   -1.860532
C      -1.515722   -2.140248    0.122475
C      -0.330579   -2.964009   -0.377962
H       0.969553    2.023298   -0.086368
H      -0.463678    1.834555   -1.103928
H      -0.643336    2.067948    0.638443
H       0.666769   -0.386881   -0.680839
H       0.486132   -0.154604    1.048982
H      -1.994259   -0.118962    0.796119
H      -2.858770    0.170248   -1.531169
H      -1.452544   -0.718409   -2.169656
H      -3.638321   -1.917060   -0.384320
H      -3.427467   -2.850056   -2.485470
H      -1.818502   -2.511218    1.106762
H       0.009036   -2.645654   -1.367537
H       0.515680   -2.887736    0.312390
H      -0.610784   -4.017811   -0.458900
