15

C      -0.126389    1.501953    0.019192
C       0.066867    0.008579    0.006130
O       1.127589   -0.561843    0.006567
N      -1.129387   -0.758892   -0.008894
C      -1.234658   -2.127649   -0.031007
C      -2.587343   -2.350635   -0.031322
N      -3.320015   -3.522343   -0.110751
N      -3.231767   -1.134021   -0.009726
N      -2.355386   -0.182955    0.000866
H       0.857105    1.969936    0.038173
H      -0.685285    1.822981   -0.863357
H      -0.712581    1.805711    0.889849
H      -0.366413   -2.760176   -0.046640
H      -2.902317   -4.316956    0.350971
H      -4.280744   -3.387327    0.173907
