17

N       0.277427    1.363094   -0.000222
C      -0.021151   -0.039745   -0.036507
C       0.109609   -0.898179   -1.319497
O      -1.220952   -1.438808   -1.141790
C      -1.458498   -0.644190    0.032124
C      -1.114468   -1.404318    1.330995
C       0.334538   -0.795603    1.291044
C       1.464968   -1.705910    1.267124
N       2.363688   -2.432907    1.222336
H       1.278562    1.513616    0.097964
H      -0.004601    1.814740   -0.865889
H       0.177732   -0.293511   -2.234489
H       0.883810   -1.673724   -1.338973
H      -2.385896   -0.069127   -0.016859
H      -1.672918   -1.090860    2.214606
H      -1.170020   -2.487789    1.223429
H       0.477249   -0.064812    2.090430
