20

C      -0.051038    1.536464   -0.046670
C      -0.038119    0.031976    0.090213
N       1.250117   -0.652457   -0.155841
C       0.650902   -0.688307    1.189120
C       1.417450   -0.004899    2.325112
O       1.786804   -1.035164    3.246416
C       0.930951   -2.130774    3.061093
C      -0.555634   -1.904752    3.116841
C       0.165782   -1.984852    1.775563
H       0.875015    1.973585    0.335087
H      -0.148041    1.826857   -1.098257
H      -0.893273    1.972539    0.501643
H      -0.930691   -0.460653   -0.295712
H       1.100736   -1.536558   -0.637165
H       2.327820    0.482357    1.969577
H       0.790789    0.744704    2.829852
H       1.371413   -3.057637    3.408341
H      -1.175954   -2.753020    3.385758
H      -0.934522   -0.946485    3.455896
H      -0.036014   -2.815356    1.107982
