17

O       0.169850    1.429541   -0.159100
C       0.013152    0.050766   -0.009431
C       0.230742   -0.649735    1.391931
C      -0.385844    0.253252    2.418262
C      -1.688127    0.506671    2.232262
C      -2.310826   -0.367967    1.174236
O      -2.069883   -1.748615    1.639556
C      -0.863640   -1.727848    0.892537
C      -1.359016   -0.626123   -0.067803
H      -0.338159    1.847540    0.547760
H       0.668411   -0.417404   -0.750754
H       1.233472   -0.999073    1.634439
H       0.207592    0.689785    3.214303
H      -2.288888    1.154065    2.860443
H      -3.367660   -0.190727    0.974895
H      -0.487952   -2.717460    0.631640
H      -1.870743   -0.809655   -1.012448
