18

O      -0.003388    0.059539   -0.285747
C      -0.012295    1.242896   -0.069270
C      -1.262548    2.116235    0.107577
C      -0.738272    3.449771    0.665578
C       0.673281    3.555001    0.086394
C       0.945536    4.482724   -1.074022
C       1.531260    4.767451    0.291380
C       1.226532    2.138853    0.081731
H      -1.702716    2.251232   -0.889012
H      -2.009610    1.610431    0.723376
H      -1.364295    4.306310    0.401844
H      -0.691126    3.405058    1.761240
H       1.618221    4.144873   -1.855806
H       0.139675    5.119475   -1.425007
H       1.117831    5.594779    0.859802
H       2.598450    4.626143    0.428592
H       1.696473    1.885605    1.043141
H       1.961621    1.928440   -0.699188
