19

C      -0.034240    1.498490    0.059739
C      -0.044494    0.004212   -0.004914
C      -0.042553   -0.769491   -1.095827
C      -0.026895   -2.246264   -0.768999
C       0.036175   -2.271900    0.757419
C       1.265275   -1.683307    1.439843
C       2.489371   -1.437677    0.739028
C       3.531732   -1.256503    0.165417
C      -0.001104   -0.838129    1.230929
H       0.881672    1.863762    0.540901
H      -0.096760    1.943707   -0.936724
H      -0.874600    1.877890    0.654984
H      -0.006996   -0.399830   -2.114899
H      -0.927303   -2.757576   -1.134040
H       0.831280   -2.756379   -1.225614
H      -0.481302   -3.057937    1.294352
H       1.402075   -2.025051    2.462861
H       4.450116   -1.087205   -0.339264
H      -0.531259   -0.523787    2.124384
