21

O       0.029703    1.493026   -0.158332
C      -0.010446    0.086153   -0.087136
C       0.221898   -0.562118    1.315005
C      -1.293252   -0.266649    1.579845
C      -1.417030   -0.579356    0.050132
C      -1.095186   -2.083951    0.058148
C      -0.210045   -2.695840   -1.067810
C       1.025391   -2.682844   -0.114346
C       0.152446   -2.070826    1.021027
H      -0.515597    1.862645    0.542723
H       0.626879   -0.243302   -0.908432
H       1.011793   -0.198024    1.973914
H      -1.824003   -0.922300    2.276479
H      -1.509311    0.771662    1.845667
H      -2.259300   -0.232440   -0.550614
H      -1.957820   -2.686963    0.350308
H      -0.521958   -3.699612   -1.365768
H      -0.118903   -2.092047   -1.974934
H       1.405852   -3.679335    0.122052
H       1.871793   -2.071113   -0.438593
H       0.096338   -2.665360    1.935631
