14

C       0.077264    1.503737    0.032218
C       0.056782    0.050031    0.058505
C       0.026503   -1.152895    0.089884
C      -0.005029   -2.585889    0.093078
N      -0.612195   -3.266604    1.251389
C      -1.290425   -3.365739   -0.049205
C      -2.563831   -2.700414   -0.176426
N      -3.587992   -2.184243   -0.318552
H       0.812583    1.875596   -0.689349
H      -0.902269    1.903838   -0.250109
H       0.335920    1.912587    1.014860
H       0.853331   -3.070535   -0.369290
H      -0.123248   -4.137341    1.444905
H      -1.228963   -4.299760   -0.601815
