19

C      -0.057858    1.588245    0.022347
C       1.471632    1.362885    0.028357
O       1.242804    0.139275    0.798164
C      -0.003159    0.043260    0.036229
C       0.369656   -0.484634   -1.372498
C       0.796390    0.619090   -2.401958
C       1.719892   -0.417033   -3.078075
C       1.920084   -0.631714   -1.560793
C       1.946652    0.926443   -1.380915
H      -0.410228    1.987727    0.974469
H      -0.526018    2.106452   -0.815958
H       2.140819    2.059122    0.537700
H      -0.766161   -0.542008    0.553216
H      -0.259977   -1.294360   -1.749980
H       0.146730    1.342177   -2.898586
H       1.227968   -1.225425   -3.627005
H       2.574502   -0.020563   -3.634192
H       2.567161   -1.351910   -1.063576
H       2.818847    1.460534   -1.766413
