17

C       0.003728    1.518789    0.086433
C       0.044308    0.030134   -0.027277
C      -0.004922   -0.762526   -1.153541
C      -0.099245   -0.815839   -2.598714
C      -0.084211   -2.100686   -2.997257
C       0.025321   -3.029234   -1.800630
N       0.067300   -2.070981   -0.703049
C       0.155716   -2.024646    0.649914
N       0.144535   -0.779627    1.087072
H       0.906656    1.902247    0.574332
H      -0.076634    1.988902   -0.897682
H      -0.849833    1.845478    0.690643
H      -0.169907    0.051157   -3.240387
H      -0.139700   -2.469668   -4.011660
H      -0.834957   -3.704687   -1.712383
H       0.931336   -3.647611   -1.829769
H       0.225310   -2.907484    1.267778
