10

C      -0.012470    1.423336   -0.065902
C       1.497001    1.759263    0.062505
N       2.137323    0.480308    0.425954
C       1.199306   -0.367382    0.485023
O      -0.078381    0.006277    0.233270
H      -0.643821    1.951776    0.653394
H      -0.413709    1.576974   -1.071208
H       1.925661    2.134782   -0.872089
H       1.697589    2.506302    0.837054
H       1.314888   -1.417736    0.728733
