21

C       0.028060    1.514349   -0.127087
C       0.009476    0.020198    0.063095
O       1.286398   -0.660226   -0.042521
C       0.618852   -0.655603    1.201844
C       1.159384   -0.133327    2.541616
C      -0.077563   -0.859762    3.154683
C       0.181903   -1.886038    2.008679
C       1.554551   -2.472680    2.404752
C       2.293041   -1.148323    2.808808
H       0.853833    1.968253    0.426073
H       0.145290    1.765104   -1.186583
H      -0.912279    1.956949    0.219878
H      -0.795280   -0.501892   -0.458921
H       1.364671    0.920991    2.723997
H       0.016295   -1.222991    4.181390
H      -1.008048   -0.302601    3.028112
H      -0.586756   -2.572710    1.655024
H       1.475816   -3.183188    3.232166
H       2.037992   -2.976660    1.564326
H       3.168727   -0.954471    2.184520
H       2.609814   -1.143064    3.855371
