16

O       0.046174    1.301906    0.164725
N       0.073779   -0.094309    0.008451
C      -1.092629   -0.614171   -0.011973
C      -1.232735   -2.123671   -0.177321
C      -2.742738   -2.404539    0.023197
C      -3.354416   -1.041587    0.127765
C      -2.449646   -0.041044    0.112224
C      -2.867063    1.387459    0.208748
O      -4.027380    1.710305    0.338854
H       0.982477    1.525934    0.164653
H      -0.904389   -2.421571   -1.177572
H      -0.602181   -2.658367    0.536168
H      -3.183512   -2.980687   -0.798971
H      -2.944241   -2.984878    0.933398
H      -4.420283   -0.865796    0.218564
H      -2.061457    2.135255    0.149187
