18

C       0.042958    1.457575   -0.057487
C      -0.033297   -0.042602   -0.040223
C       0.075610   -0.851153    1.208710
C      -0.245354   -2.303166    0.819458
C      -0.519160   -2.207780   -0.682390
C       0.886934   -2.214657   -0.163326
N       1.226739   -0.787881    0.244183
C      -0.897985   -0.788753   -1.050584
O      -2.275492   -0.477489   -0.949463
H       0.619331    1.833668    0.791456
H       0.524848    1.810670   -0.975294
H      -0.965090    1.881978   -0.016574
H       0.156105   -0.447069    2.211615
H      -0.563482   -3.112282    1.460749
H      -0.911770   -3.065955   -1.212230
H       1.676449   -2.901722   -0.435718
H      -0.616577   -0.542293   -2.079819
H      -2.560147   -0.733865   -0.064232
