21

C       0.040201    1.682440    0.359555
C      -0.110695    0.177836    0.563269
C      -1.249690   -0.431999   -0.241984
O      -2.017637    0.237545   -0.894946
C      -1.338655   -1.934966   -0.170072
O      -2.569488   -2.553501   -0.532642
C      -1.450315   -2.801736   -1.381634
C      -1.542155   -2.210434   -2.769994
C      -0.891351   -4.207435   -1.301151
H       0.850832    2.077630    0.977743
H       0.257339    1.915729   -0.686210
H      -0.884286    2.202354    0.621587
H       0.813774   -0.359647    0.307418
H      -0.291250   -0.062534    1.621131
H      -0.848379   -2.374071    0.701021
H      -1.977901   -1.212313   -2.740157
H      -0.551827   -2.162465   -3.235561
H      -2.172402   -2.850616   -3.396938
H      -1.500924   -4.887691   -1.905907
H       0.132064   -4.242846   -1.688919
H      -0.891199   -4.572398   -0.271370
