19

C      -0.109608    1.530548   -0.119965
N       0.086800    0.102079    0.008349
C       0.998105   -0.603327   -0.910052
C       1.462265   -1.502026    0.267403
C       2.934158   -1.415302    0.648547
O       3.098022   -0.140671    1.297059
C       1.901118    0.316634    1.782083
N       1.776523    1.295269    2.571093
C       0.748318   -0.484166    1.194418
H       0.827874    2.111639   -0.133220
H      -0.652671    1.731235   -1.050124
H      -0.713353    1.893600    0.716311
H       0.497906   -1.093589   -1.752463
H       1.815936    0.022925   -1.303528
H       1.072609   -2.518623    0.254415
H       3.222382   -2.208368    1.349912
H       3.613686   -1.441691   -0.207907
H       2.691457    1.682701    2.811876
H       0.058603   -0.810584    1.977013
