19

C       0.170839    1.558549   -0.496522
C      -0.012103    0.122417   -0.072215
N       1.183796   -0.708668    0.003784
C       0.455173   -0.422425    1.252445
C       1.148264    0.436263    2.269190
O       2.023192    1.234515    2.020771
N       0.712144    0.182483    3.576755
C      -0.621413    0.512019    4.060424
C       0.595013    1.239481    4.551432
H       1.083739    1.968972   -0.064066
H       0.240428    1.618172   -1.587889
H      -0.682686    2.168514   -0.180631
H      -0.922018   -0.351509   -0.442177
H       0.989427   -1.662911   -0.287479
H      -0.148351   -1.216634    1.684201
H      -1.286986    1.047332    3.387353
H      -1.102357   -0.236779    4.683853
H       0.988906    1.019247    5.539175
H       0.765268    2.252588    4.197535
