14

N       0.021730    1.046312   -0.865784
C       0.003642    0.027323   -0.091724
N      -1.209454   -0.504561    0.293988
C      -1.465604   -1.546246    1.195839
N      -2.468604   -1.436802    1.970418
N      -0.716352   -2.726012    1.064548
C       0.540236   -2.763510    0.869479
N       1.495502   -1.740635    0.887133
C       1.250092   -0.558045    0.483980
H       0.976354    1.362657   -1.028003
H      -2.000041    0.105976    0.129302
H      -2.617664   -2.323732    2.450789
H       0.996053   -3.745393    0.741829
H       2.071845    0.160877    0.536375
