17

C       0.207438    1.422600    0.095451
C      -0.158704   -0.033834    0.002702
N      -1.138310   -0.653538    0.519217
O       0.742554   -0.693917   -0.764796
C       0.557620   -2.091943   -0.857654
C      -0.533090   -2.613728   -1.810124
O       0.497884   -3.281677   -2.611920
C       1.510780   -2.757288   -1.836082
N       2.755791   -2.835967   -1.936763
H       1.193524    1.532057    0.556681
H       0.269858    1.858492   -0.906037
H      -0.528487    1.973625    0.682577
H      -1.716973   -0.024264    1.070249
H       0.529877   -2.540143    0.137656
H      -1.243777   -3.329481   -1.395959
H      -1.041806   -1.840882   -2.388903
H       3.029855   -3.382324   -2.755443
