19

C       0.121787    1.403916   -0.079826
C       1.635516    1.462369    0.207657
C       1.433027    0.041942    0.774738
O       0.039365    0.044200    0.402267
C       2.207482   -1.075478    0.088238
O       3.591690   -0.837485    0.291645
C       4.181830   -2.061280    0.712440
C       3.017650   -2.765162    1.403668
O       1.905087   -2.351933    0.620432
H      -0.497220    2.084265    0.518220
H      -0.178904    1.484091   -1.130996
H       2.275581    1.504917   -0.675514
H       1.963408    2.216524    0.923106
H       1.563008   -0.053567    1.860899
H       1.958860   -1.098689   -0.984432
H       4.543623   -2.640075   -0.149559
H       5.022451   -1.833022    1.372305
H       3.073778   -3.856076    1.375802
H       2.916850   -2.436957    2.448333
