19

C       0.013246    1.668062   -0.317831
C      -0.022051    0.158901   -0.177441
C      -1.334240   -0.412042    0.347524
C      -1.668842    0.079753    1.743383
O      -2.750058    0.477813    2.090065
C       0.666055   -0.774028   -1.169881
C       2.018640   -0.209106   -1.586574
O       2.406641   -0.005138   -0.199126
C       1.197798   -0.624520    0.240081
H       1.028865    2.021760   -0.504015
H      -0.633512    2.004232   -1.135759
H      -0.337926    2.153743    0.599438
H      -2.174442   -0.176456   -0.314060
H      -1.261674   -1.508521    0.407842
H      -0.815562    0.036015    2.459874
H       0.150692   -1.595674   -1.649910
H       2.671096   -0.953534   -2.055578
H       2.036832    0.718970   -2.168923
H       1.258602   -1.303113    1.084608
