11

N      -0.067560    1.291015    0.291695
C      -0.035423    0.071023   -0.051457
O       1.130036   -0.575535   -0.394547
N       1.147066   -1.985180   -0.788242
N       0.096223   -2.609976   -0.814134
C      -1.148657   -2.026731   -0.477440
C      -1.238553   -0.737760   -0.107025
C      -2.270901   -2.905045   -0.563669
N      -3.190029   -3.603846   -0.628588
H       0.864963    1.707315    0.276320
H      -2.175953   -0.265026    0.155815
