14

C       0.116714    1.451095    0.025191
C      -0.069646   -0.020234   -0.037318
C      -1.142278   -0.838318   -0.168008
C      -0.655576   -2.192807   -0.145532
C       0.695109   -2.089972   -0.007925
N       1.737184   -3.010422   -0.006324
O       1.074943   -0.790775    0.058959
H       0.760603    1.817457   -0.783666
H      -0.853365    1.945824   -0.064469
H       0.572379    1.767796    0.971531
H      -2.169776   -0.521627   -0.263195
H      -1.229855   -3.102061   -0.220507
H       1.428067   -3.939220    0.245736
H       2.505872   -2.722108    0.586732
