23

C      -0.196594    1.603521    0.109455
C       0.019720    0.105835    0.101153
C       1.383803   -0.535988   -0.211610
C       2.609828    0.267432   -0.467293
C       3.579332   -0.338816   -1.471007
O       2.855180    1.333938    0.066051
C       0.724744   -0.654669    1.180675
C       1.328530    0.063507    2.372715
C       0.188348   -2.035612    1.519294
H       0.683580    2.145070    0.453931
H      -0.430933    1.959456   -0.899589
H      -1.044659    1.858978    0.754747
H      -0.799435   -0.440255   -0.363222
H       1.335064   -1.442977   -0.806811
H       3.087132   -0.477388   -2.440567
H       4.445565    0.313149   -1.588044
H       3.904308   -1.330594   -1.135939
H       1.816357    0.996041    2.094331
H       0.548960    0.277378    3.113318
H       2.076501   -0.572543    2.859872
H       0.981270   -2.682555    1.911899
H      -0.591678   -1.966237    2.286875
H      -0.247955   -2.528573    0.644900
