14

C      -0.036059    1.563796   -0.114649
C       1.501244    1.457413    0.037149
C       1.957465    0.482974   -1.067543
C       2.038899   -0.691270   -0.167995
C       1.321787    0.150672    0.917202
C       0.011004    0.040016    0.078920
N       0.848939   -0.535061   -1.060088
H      -0.493642    2.057345    0.748700
H      -0.451293    1.961667   -1.044808
H       2.143198    2.292533    0.309879
H       2.444003    0.687633   -2.012848
H       2.667935   -1.573189   -0.162141
H       1.411723    0.118914    1.999574
H      -0.857063   -0.572081    0.318483
