19

O      -0.069906    1.475824    0.043202
C      -0.021559    0.053346   -0.015687
C       0.639664   -0.606517    1.238994
C      -0.257132   -1.815893    1.645304
C      -1.525272   -1.518564    0.899586
C      -1.402006   -0.523888    0.027589
C      -2.679532   -0.321069   -0.719955
O      -3.574081   -1.291644   -0.153335
C      -2.904678   -2.092872    0.827950
H       0.821135    1.808930   -0.102202
H       0.495743   -0.252404   -0.941214
H       1.681205   -0.892720    1.067762
H       0.625902    0.148996    2.030295
H       0.180294   -2.770440    1.323010
H      -0.393056   -1.892822    2.730388
H      -3.101798    0.685490   -0.590896
H      -2.576448   -0.495597   -1.803287
H      -2.912142   -3.150954    0.518176
H      -3.448355   -2.033516    1.783715
