20

C      -0.047644    1.513490   -0.019833
C       0.012943    0.000182    0.106410
O      -1.303793   -0.504598   -0.003750
C      -1.413844   -1.917264    0.007226
C      -1.407720   -2.475362    1.433106
C      -2.727238   -2.256715   -0.721525
C      -2.709202   -1.902762   -2.134933
C      -2.681286   -1.629217   -3.304784
H       0.956383    1.942938    0.049032
H      -0.485475    1.797559   -0.980686
H      -0.663540    1.940733    0.776689
H       0.646872   -0.428611   -0.687143
H       0.466106   -0.281982    1.070424
H      -0.578267   -2.355372   -0.561436
H      -1.475188   -3.568050    1.425178
H      -0.487881   -2.202905    1.957747
H      -2.254690   -2.077428    2.001254
H      -2.929938   -3.328959   -0.611158
H      -3.541488   -1.725972   -0.212319
H      -2.663957   -1.379335   -4.336331
