13

O      -0.506956    0.783559    0.853256
C       0.189604    0.873003   -0.121772
C       1.400768    1.759254   -0.164249
N       2.382500    1.482255   -1.196983
C       1.641563    2.744908   -1.316564
C       0.687478    2.816505   -2.484802
O       0.288677    3.845908   -2.950993
C       2.288785    3.982561   -0.945839
N       2.844149    4.949924   -0.644002
H       0.002647    0.291880   -1.048522
H       1.718275    2.124575    0.809663
H       3.333542    1.642114   -0.874408
H       0.404257    1.819344   -2.877212
