21

C       0.124798    1.416878   -0.435473
C       0.045444    0.003806   -0.091440
C      -0.008370   -1.165020    0.194417
C      -0.094204   -2.583771    0.533608
C      -1.458573   -3.196140    0.215844
C      -2.605962   -2.664035    1.049885
C      -1.735497   -3.575292   -1.227757
C      -1.491535   -4.645256   -0.189473
O      -0.282425   -5.351168   -0.189719
H       1.107529    1.673051   -0.847288
H      -0.626644    1.688000   -1.185654
H      -0.040875    2.053230    0.441204
H       0.682283   -3.147740    0.007813
H       0.113454   -2.718077    1.604488
H      -2.718096   -1.584312    0.906501
H      -3.552546   -3.140970    0.777360
H      -2.433804   -2.845547    2.117513
H      -2.738009   -3.444047   -1.621951
H      -0.939942   -3.401284   -1.945331
H      -2.349854   -5.227703    0.147987
H      -0.264370   -5.909000   -0.974033
