21

C       0.068038    1.568513    0.016585
C       0.020570    0.040479    0.084505
C      -1.403704   -0.521250   -0.082770
C      -1.470542   -2.017316   -0.007271
C      -1.755609   -2.883373   -1.014812
O      -1.707906   -4.175252   -0.580577
C      -1.383277   -4.141276    0.743647
C      -1.276403   -5.450073    1.440601
C      -1.226724   -2.850639    1.142704
H       1.089937    1.941643    0.136179
H      -0.309485    1.934559   -0.944919
H      -0.545815    2.020236    0.804090
H       0.664139   -0.389872   -0.692315
H       0.432427   -0.301164    1.042147
H      -2.049633   -0.081795    0.689784
H      -1.810737   -0.187442   -1.045206
H      -2.008616   -2.747126   -2.053827
H      -0.507862   -6.086430    0.986915
H      -1.013342   -5.291797    2.488794
H      -2.221405   -6.004165    1.404201
H      -0.971976   -2.522411    2.139388
