21

C      -0.028300    1.494667   -0.062253
C      -0.026371   -0.014231    0.005213
C      -1.315138   -0.745036   -0.367031
C      -1.261795   -2.124177    0.326335
C      -0.198458   -2.017412    1.454439
O       0.687640   -3.151335    1.497101
C       0.625475   -0.782818    1.150624
C       1.266401   -0.761555   -0.215892
O       1.324122   -1.914768   -1.004055
H       0.934797    1.911369    0.249233
H      -0.223075    1.842159   -1.083796
H      -0.801851    1.921906    0.587152
H      -2.164924   -0.157518    0.000276
H      -1.437193   -0.839960   -1.451165
H      -2.238071   -2.424835    0.718694
H      -0.934621   -2.889633   -0.379658
H      -0.681586   -1.908924    2.435444
H       0.155783   -3.941225    1.640838
H       1.125714   -0.284383    1.974108
H       2.152320   -0.132635   -0.307719
H       1.452277   -2.654505   -0.394058
