17

N      -0.482462   -0.973893   -0.801418
C      -0.252232    0.091003   -0.417197
C       0.009595    1.434096    0.115363
C      -0.588397    1.551656    1.559406
O       0.108596    2.508677    2.344436
C       1.489239    2.623298    2.013951
C       1.613242    3.156789    0.574279
N       1.460884    1.730680    0.085469
C       2.046316    1.310202    1.418687
H      -0.474504    2.153608   -0.553904
H      -1.635098    1.863337    1.520173
H      -0.553099    0.568096    2.044164
H       1.976122    3.124565    2.853040
H       0.847071    3.858129    0.234002
H       2.608456    3.524627    0.310952
H       3.136071    1.308791    1.347195
H       1.708797    0.349492    1.812057
