17

C      -0.268202    1.362880   -0.275748
O      -0.292472   -0.046049   -0.327868
C       0.899854   -0.592161   -0.878285
C       0.742778   -2.071032   -0.960093
N       1.693921   -2.932480   -0.598910
N       1.156307   -4.111379   -0.853125
N      -0.092113   -4.109426   -1.340154
C      -0.373405   -2.810103   -1.422003
N      -1.560646   -2.309816   -1.930757
H       0.553076    1.729188    0.358790
H      -0.153607    1.806764   -1.277038
H      -1.218548    1.690341    0.152004
H       1.070288   -0.156886   -1.878542
H       1.773184   -0.343726   -0.257825
H       1.651322   -4.969397   -0.680976
H      -2.312254   -2.985528   -1.920372
H      -1.818762   -1.439012   -1.485087
