19

O      -0.071552    1.364599    0.023444
C       0.009585   -0.037511    0.043763
C       0.669409   -0.728879   -1.217694
C      -0.317295   -1.897178   -1.339090
C      -1.651804   -1.119176   -1.485816
C      -1.379521   -0.743573   -0.015882
C      -0.755759   -2.155179    0.191897
C       0.270315   -1.977525    1.271287
C       0.673873   -0.702752    1.240410
H       0.817527    1.718960   -0.079542
H       0.619550   -0.073650   -2.093188
H       1.708002   -1.017852   -1.040306
H      -0.051667   -2.727370   -1.993069
H      -1.699941   -0.323644   -2.234441
H      -2.521281   -1.775147   -1.578605
H      -2.135538   -0.346694    0.662782
H      -1.457528   -2.984011    0.284444
H       0.635399   -2.762926    1.921862
H       1.445908   -0.233614    1.839923
