17

O      -0.802632    1.071429   -0.321781
C       0.197763    0.977158    0.345586
C       1.388114    1.893022    0.242217
C       1.385955    3.006179   -0.845031
C       1.471206    4.079611    0.261095
C       0.293921    3.933317    1.198621
C       1.439109    2.977448    1.347710
C       2.273783    5.252018    0.198985
C       2.962682    6.236460    0.122375
H       0.281318    0.201253    1.142012
H       2.305035    1.295695    0.237848
H       2.279338    2.975120   -1.469325
H       0.495723    3.047346   -1.475985
H       0.229178    4.694181    1.968184
H      -0.662053    3.596899    0.806075
H       2.030350    2.917622    2.252436
H       3.564875    7.108357    0.058415
