18

C       0.042819    1.346812    0.153977
C       1.463068    1.913115   -0.008347
C       2.245046    0.622769   -0.058888
N       3.687043    0.486453   -0.137219
C       2.968813   -0.054166    1.054111
C       2.512081   -1.476152    1.031289
C       1.593908   -1.683500    0.080041
C       1.320164   -0.415944   -0.704887
O       0.000287    0.119103   -0.584895
H      -0.175506    1.157794    1.215618
H      -0.737696    2.000048   -0.245770
H       1.563310    2.466390   -0.948888
H       1.755669    2.570849    0.812598
H       3.944254   -0.273983   -0.765373
H       3.228894    0.432112    1.989017
H       2.900226   -2.229088    1.708542
H       1.142695   -2.636365   -0.171984
H       1.518417   -0.567621   -1.776506
