14

C      -0.045183    1.604672    0.157579
C       0.029319    0.070857    0.024134
C       0.754539   -0.370730   -1.270606
C      -0.048580   -0.019816   -2.507370
O       0.390413    0.541965   -3.474616
C       0.680591   -0.521516    1.195936
N       1.203029   -0.983779    2.117307
H       0.958145    2.036922    0.201410
H      -0.563910    2.031545   -0.705481
H      -0.584045    1.892241    1.063060
H      -0.993512   -0.329544   -0.003793
H       1.747647    0.079593   -1.344086
H       0.874770   -1.462237   -1.260912
H      -1.115824   -0.344392   -2.464421
