17

C      -0.133163    1.543749    0.143765
C       0.026931    0.008898    0.034411
C       0.759134   -0.512461    1.181681
C       1.359370   -0.925615    2.146915
C       2.047256   -1.388931    3.231911
N       2.631046   -1.783656    4.155439
C      -1.333988   -0.669471   -0.151789
C      -1.589993   -2.076992    0.229009
N      -2.214324   -0.970266    0.981121
H       0.838961    2.034553    0.229753
H      -0.637289    1.922853   -0.749513
H      -0.735168    1.807563    1.017055
H       0.625565   -0.207906   -0.862425
H      -1.863443   -0.266093   -1.013327
H      -2.277375   -2.679336   -0.357422
H      -0.785017   -2.631783    0.702707
H      -1.712507   -0.836300    1.857456
