17

C      -0.159895    1.219495   -1.135904
C      -0.119307    0.062811   -0.170951
C       0.967433   -0.933615   -0.230390
O       0.953195    0.065755    0.794965
C      -1.452741   -0.379658    0.388315
N      -2.504274   -0.259033   -0.309565
N      -1.339885   -0.906715    1.687518
C      -2.353509   -1.430152    2.447323
O      -3.504140   -1.563883    2.094454
H       0.841790    1.432644   -1.515916
H      -0.828086    0.981351   -1.965524
H      -0.548626    2.114718   -0.642249
H       0.791578   -1.952991    0.108886
H       1.747744   -0.817337   -0.979960
H      -3.313595   -0.623626    0.194179
H      -0.424277   -0.795576    2.106059
H      -1.994884   -1.730420    3.450286
