17

C      -0.023636    1.432485    0.058098
N       0.229016    0.003370   -0.030293
C       0.668725   -0.618135    0.967499
C       1.001802   -2.093438    1.019842
O       1.219563   -2.355713    2.396680
C       1.500922   -1.124883    3.031203
C       2.990258   -0.892633    3.229965
O       0.939366   -0.099336    2.206131
H       0.484325    1.934897   -0.772354
H      -1.096716    1.615732   -0.070538
H       0.298559    1.891213    0.999783
H       0.175800   -2.710187    0.658238
H       1.892022   -2.312123    0.413169
H       0.965570   -1.110086    3.987438
H       3.513158   -0.905211    2.269080
H       3.160495    0.075197    3.709463
H       3.402251   -1.680233    3.866533
