17

N      -0.119289    1.398796    0.074346
C       0.237108    0.009476   -0.182471
C       0.882217   -0.577620    1.069949
O      -0.013188   -0.538093    2.225340
C       0.218748   -1.933693    2.475807
C      -0.313638   -2.761509    1.356770
C       1.045512   -2.100111    1.223719
C       2.136409    0.119977    1.400809
N       3.153348    0.608537    1.648678
H      -0.483624    1.835116   -0.764845
H      -0.848534    1.436737    0.779483
H      -0.602950   -0.642670   -0.466045
H       0.970480   -0.027146   -0.996266
H       0.367065   -2.242656    3.502589
H      -0.253683   -3.835898    1.502211
H      -1.177130   -2.422303    0.794299
H       1.963828   -2.641041    1.047901
