21

C      -0.142010    1.535012    0.065359
C      -0.021755    0.026982   -0.077144
C       0.845713   -0.471163   -1.235486
C       1.262204   -1.866542   -0.753459
C       2.501295   -2.464210   -1.412199
C       1.424064   -1.623597    0.772910
O       0.604200   -0.497592    1.103451
C       1.077288   -2.789992    1.581646
C       0.808392   -3.765230    2.230814
H       0.848671    1.993777    0.142870
H      -0.659817    1.961207   -0.800071
H      -0.709582    1.790417    0.964447
H      -1.030465   -0.409484   -0.166763
H       0.311404   -0.490881   -2.189267
H       1.726049    0.174397   -1.350655
H       0.416909   -2.550612   -0.891949
H       3.365643   -1.799476   -1.301015
H       2.756879   -3.429153   -0.962719
H       2.338560   -2.626749   -2.482154
H       2.469756   -1.351900    0.986381
H       0.566887   -4.619258    2.813952
