17

C       0.190949    1.610114   -0.010965
C      -0.005569    0.108836    0.084894
N      -1.411088   -0.299448    0.152555
C      -1.501926   -1.317226    1.089796
N      -0.471567   -1.574174    1.801915
C       0.610367   -0.735718    1.272458
C       1.545518   -1.495582    0.286695
C       0.850985   -0.766905   -0.877452
O       0.902160   -0.854398   -2.069835
H       1.253287    1.868962    0.045406
H      -0.192624    1.992530   -0.962738
H      -0.336011    2.114399    0.804297
H      -1.965766   -0.337415   -0.690312
H      -2.457474   -1.817957    1.220747
H       1.115081   -0.187283    2.070146
H       2.607329   -1.238393    0.366727
H       1.444035   -2.584421    0.287561
