20

C       0.008471    1.441915    0.056514
C       0.036474   -0.064412   -0.028899
C      -0.039426   -0.718230   -1.409297
C      -0.804940   -2.036606   -1.145149
C      -0.723939   -2.179075    0.369878
C       0.746832   -2.293475    0.873429
O       1.761611   -2.768435    0.012409
C       0.706093   -0.798548    1.079572
N      -0.818052   -0.773499    0.954698
H       0.889022    1.873519   -0.431821
H      -0.883583    1.838401   -0.439896
H      -0.006948    1.777138    1.097022
H      -0.574539   -0.067461   -2.107771
H       0.956980   -0.901644   -1.817566
H      -1.850301   -1.957046   -1.459050
H      -0.358703   -2.893049   -1.657335
H      -1.444664   -2.867660    0.812203
H       0.781989   -2.805165    1.843258
H       1.802803   -3.726939    0.086588
H       1.218325   -0.267345    1.877306
