20

C       0.233885    1.558538    0.104750
C      -0.056276    0.062959   -0.013532
N       0.497090   -0.490634   -1.243621
C      -0.208307   -0.087199   -2.500439
C      -0.417339   -1.465962   -3.167184
C      -0.943159   -2.300527   -1.947485
C       0.467856   -1.962058   -1.349435
C       0.930500   -2.129721   -2.815203
O       1.813659   -2.675335   -3.401602
H       1.310903    1.742467    0.059456
H      -0.239711    2.124494   -0.704109
H      -0.151594    1.949265    1.051403
H       0.414420   -0.464862    0.823967
H      -1.146433   -0.107770    0.077890
H      -1.169224    0.401976   -2.290522
H       0.399837    0.591778   -3.106619
H      -0.861133   -1.498187   -4.159685
H      -1.809209   -1.893656   -1.422163
H      -1.083944   -3.359363   -2.172314
H       0.919177   -2.485199   -0.509691
