17

C      -0.010459    1.475206    0.088819
C       0.130959   -0.047636    0.014490
C       0.692224   -0.499559   -1.323781
O       0.788539   -1.936204   -1.299881
C       1.272769   -2.512437   -2.419695
C       1.323145   -4.014391   -2.267325
O       1.612657   -1.893833   -3.396518
H       0.956718    1.972743   -0.041326
H      -0.683917    1.851979   -0.688619
H      -0.415073    1.783329    1.056873
H       0.788498   -0.406632    0.814604
H      -0.842381   -0.526677    0.171159
H       0.048647   -0.197700   -2.157375
H       1.685476   -0.077222   -1.511581
H       0.322241   -4.404779   -2.062451
H       1.716186   -4.458651   -3.180875
H       1.956641   -4.284559   -1.417697
