18

N      -0.038192    1.056497    0.998509
C       0.019661    0.133135    0.133150
C      -1.250606   -0.498085   -0.406740
C      -1.091804   -1.952880   -0.838994
C      -0.489293   -2.350103   -2.164042
C       0.513225   -1.287634   -2.614572
C       1.230449   -1.435929   -1.229898
O       1.217196   -0.308900   -0.351624
C       0.278463   -2.570176   -0.858103
H       0.905561    1.372477    1.232891
H      -1.997946   -0.403489    0.382169
H      -1.611517    0.116176   -1.241335
H      -1.876039   -2.622241   -0.500609
H      -0.953548   -3.093754   -2.799134
H       1.159039   -1.623755   -3.428734
H       0.125591   -0.294481   -2.861537
H       2.281092   -1.710356   -1.314875
H       0.537887   -3.479180   -0.331133
