19

C       0.345377    1.639204   -0.192252
C      -0.070312    0.178122    0.062076
C       0.578857   -0.442441    1.255030
C       0.114571   -0.846581    2.478542
C      -1.276367   -0.799982    3.020462
N       1.154177   -1.357456    3.255448
C       2.212088   -1.254876    2.503062
O       3.467654   -1.622737    2.817099
N       1.953391   -0.714489    1.288728
H       1.424809    1.725805   -0.357064
H      -0.158689    2.040976   -1.076981
H       0.091930    2.269351    0.665286
H      -1.154647    0.129143    0.201049
H       0.142964   -0.417430   -0.837293
H      -1.620803   -1.800575    3.305101
H      -1.328365   -0.176866    3.920576
H      -1.980444   -0.394457    2.289067
H       3.423082   -1.978075    3.713671
H       2.624287   -0.559518    0.556044
