19

C      -0.109417    1.622262   -0.023064
C      -0.055106    0.110778   -0.248528
O       0.820451   -0.514203    0.703463
C      -1.423218   -0.548647    0.004511
O      -1.843148   -0.362695    1.336875
C       0.438942   -0.241278   -1.659296
O       1.768101    0.248058   -1.854338
C       2.784855   -0.621946   -1.670899
O       3.927996   -0.278326   -1.670312
H       0.883437    2.066723   -0.143081
H      -0.776549    2.100310   -0.747001
H      -0.488371    1.830983    0.979462
H       1.534259    0.098029    0.909424
H      -2.184556   -0.100201   -0.641732
H      -1.351684   -1.619516   -0.246202
H      -1.095888   -0.642930    1.880861
H       0.416441   -1.329131   -1.798323
H      -0.183816    0.225309   -2.427454
H       2.439087   -1.663914   -1.540647
