11

O       0.011278   -0.083452    0.004329
C       0.006245    1.120436    0.005753
O       1.127141    1.880889   -0.003986
C       2.341127    1.118400   -0.015895
C       3.461358    2.055972   -0.019411
N       4.373827    2.762630   -0.022531
C      -1.172237    1.949997    0.017480
C      -2.185414    2.594778    0.027518
H       2.391905    0.469072    0.863936
H       2.379708    0.477340   -0.902426
H      -3.081320    3.167377    0.036447
