18

C      -0.623539    1.319778    0.048204
C       0.197340    0.035265   -0.011668
C       1.052970   -0.017259   -1.296539
O       1.848811   -1.209842   -1.433864
C       2.181066   -1.813527   -0.213464
C       3.624594   -1.846441    0.370703
O       3.116989   -1.229469    1.611580
C       1.936959   -0.941332    0.976591
N       1.093664   -0.033606    1.172265
H       0.032588    2.195701    0.036974
H      -1.315896    1.388610   -0.796884
H      -1.200210    1.347407    0.975954
H      -0.487306   -0.825878   -0.013952
H       0.415567    0.012541   -2.185080
H       1.708530    0.865560   -1.309230
H       1.714521   -2.803750   -0.146092
H       4.069586   -2.823008    0.566668
H       4.326347   -1.175224   -0.129467
