23

C       0.025168    1.477314   -0.076420
C       0.043582   -0.038174    0.136439
O       0.679833   -0.379777    1.370911
C      -1.349283   -0.634315    0.051884
C      -2.002251   -1.204832   -1.186546
C      -0.995483   -1.966234   -2.056886
C      -0.632868   -2.861179   -0.828917
C      -1.671032   -2.104528    0.018455
C      -2.573483   -2.761128    1.024289
H       1.035927    1.886180    0.004616
H      -0.379888    1.730062   -1.061846
H      -0.603035    1.967198    0.678236
H       0.690043   -0.487084   -0.623369
H       0.105387   -0.081832    2.084760
H      -2.068792   -0.082682    0.660923
H      -2.967312   -0.843418   -1.525368
H      -1.484417   -2.539693   -2.847633
H      -0.189389   -1.381675   -2.512371
H      -0.911693   -3.905950   -0.988205
H       0.398664   -2.830843   -0.466340
H      -2.014848   -3.062828    1.919095
H      -3.371057   -2.082929    1.346495
H      -3.045890   -3.660658    0.612149
