19

C      -0.219030    1.447088   -0.117499
C       0.179952   -0.018051    0.094092
C       0.804221   -0.624716   -1.144806
C       0.980883   -2.103321   -1.411337
C      -0.253298   -2.877346   -0.970181
O      -1.137775   -1.972879   -1.683806
C      -0.007905   -1.276422   -2.240931
C      -0.038562   -0.885534   -3.605889
C      -0.065163   -0.540924   -4.758578
H       0.647617    2.061836   -0.384809
H      -0.953534    1.538911   -0.923759
H      -0.660203    1.869578    0.790304
H       0.890510   -0.095484    0.926885
H      -0.704971   -0.596019    0.375681
H       1.633979   -0.052751   -1.557450
H       1.923236   -2.539215   -1.714334
H      -0.308919   -3.882527   -1.401751
H      -0.477995   -2.920685    0.101295
H      -0.091858   -0.240136   -5.776622
