18

C       0.235818    1.549372   -0.019573
C       0.069581    0.045194    0.059956
N       0.923755   -0.747484   -0.881606
C       1.398557   -1.630571    0.206384
C       2.715991   -1.129072    0.808678
O       2.010763   -0.173118    1.646292
C       0.718574   -0.705320    1.266358
C      -0.107503   -1.095249    2.377776
C      -0.820010   -1.424634    3.289187
H       1.279432    1.821583    0.151834
H      -0.063801    1.913252   -1.007528
H      -0.386040    2.047065    0.732159
H      -0.989803   -0.236013   -0.002370
H       0.390014   -1.234345   -1.591436
H       1.222761   -2.701477    0.104720
H       3.253596   -1.862268    1.423058
H       3.397148   -0.642621    0.104555
H      -1.440934   -1.713336    4.101148
