27

C       0.076023    1.565240   -0.126688
C      -0.175742    0.071110    0.109268
C       0.642346   -0.525864    1.278228
C       0.043892   -0.066282    2.620895
C       0.827357   -2.078678    1.163011
C      -0.515591   -2.816997    0.998649
C       1.741840   -2.406139   -0.035957
C       1.522593   -2.597863    2.438433
O       1.838085   -3.975847    2.271078
H       1.128873    1.752833   -0.365946
H      -0.524828    1.934740   -0.963882
H      -0.176601    2.173366    0.747713
H      -1.244768   -0.091795    0.296716
H       0.051405   -0.461064   -0.819564
H       1.654669   -0.099074    1.213218
H      -0.920017   -0.548039    2.817805
H       0.703476   -0.275707    3.467121
H      -0.129594    1.013658    2.614911
H      -0.993088   -2.576091    0.044835
H      -0.349471   -3.896530    1.032145
H      -1.219417   -2.564833    1.799078
H       2.703420   -1.887219    0.052384
H       1.944298   -3.477997   -0.075726
H       1.289291   -2.113163   -0.986931
H       2.437114   -2.008609    2.621205
H       0.862142   -2.465768    3.306029
H       2.178601   -4.306773    3.106449
