19

C      -0.340450    1.453313    0.102343
C       0.226779    0.027824    0.159342
C       0.761702   -0.476204   -1.169538
C       0.682659   -1.945860   -1.510845
N      -0.082066   -0.986562   -2.269529
C      -1.532186   -0.998632   -2.135064
C       1.977918    0.220060   -1.698867
O       2.653262    0.996421   -1.069701
H       0.425913    2.161298   -0.221081
H      -1.186807    1.524890   -0.587765
H      -0.690593    1.764257    1.091186
H       1.060317    0.002772    0.869711
H      -0.528048   -0.664674    0.544085
H       1.493674   -2.446318   -2.035547
H       0.166695   -2.562903   -0.774878
H      -1.896539   -1.249286   -1.128118
H      -1.931718   -0.020632   -2.417810
H      -1.931185   -1.741525   -2.832739
H       2.218818   -0.059682   -2.748285
