17

O      -0.084234    1.353368   -0.079440
C       0.037496   -0.037730   -0.057373
C       1.135944   -0.676981   -0.804824
C       1.210393   -2.012445   -0.743524
C       0.126484   -2.653136    0.080036
C      -1.256733   -2.210651   -0.473568
C      -1.300720   -0.781493    0.028315
C      -0.395311   -0.779248    1.225013
O       0.159769   -2.047130    1.404144
H       0.639173    1.723533    0.438514
H       1.846891   -0.047430   -1.330600
H       1.989144   -2.598479   -1.216131
H       0.242093   -3.727823    0.214264
H      -1.306213   -2.313200   -1.559990
H      -2.064160   -2.791886   -0.017878
H      -2.199288   -0.180991   -0.020706
H      -0.557920   -0.231088    2.144094
