15

O       0.087945    1.454613    0.046224
C       0.057327    0.057208   -0.058907
C      -1.252809   -0.719342   -0.053214
C      -0.708434   -1.755746   -0.961408
N      -1.769900   -0.849238   -1.468192
C      -0.763983   -0.132008   -2.325146
C       0.354477   -0.649046   -1.411435
O       1.675119   -0.773748   -1.776685
H      -0.654184    1.817606   -0.447098
H       0.739341   -0.330023    0.703153
H      -1.987218   -0.813023    0.735838
H      -0.759601   -2.835849   -0.954038
H      -0.766721   -0.602123   -3.313628
H      -0.899525    0.951576   -2.437584
H       1.722402   -1.138264   -2.667140
