13

O      -0.117532    1.357105    0.042523
N       0.033364   -0.030077    0.105646
C      -1.077576   -0.616550    0.001801
C      -2.535130   -0.275206   -0.205218
N      -2.791769   -1.729083   -0.428814
C      -1.417199   -2.102774    0.014584
C      -0.693563   -2.987401   -0.901039
N      -0.116732   -3.691217   -1.612378
H       0.792766    1.668391    0.104079
H      -3.007939    0.160674    0.684902
H      -2.766937    0.354459   -1.069975
H      -3.524708   -2.128058    0.145406
H      -1.359066   -2.528497    1.026414
