20

C       0.064214    1.593397   -0.271559
C       0.000644    0.093114    0.060116
C      -1.400754   -0.424930    0.154671
C      -2.143899   -0.795933    1.258913
C      -1.838609   -0.840846    2.717661
N      -3.346394   -1.160337    0.735481
C      -4.527272   -1.647456    1.413719
N      -3.350466   -1.023975   -0.607804
N      -2.178846   -0.580829   -0.956206
H       1.101351    1.928944   -0.370484
H      -0.455426    1.796376   -1.211867
H      -0.414191    2.190673    0.511515
H       0.529426   -0.469666   -0.717535
H       0.529521   -0.103077    0.999748
H      -2.490792   -0.174012    3.294105
H      -1.955675   -1.849668    3.130797
H      -0.807649   -0.527972    2.894833
H      -4.902065   -0.907681    2.127748
H      -5.283468   -1.829758    0.650330
H      -4.316779   -2.579984    1.946486
