21

C      -0.202251    1.594636    0.154873
C      -0.179178    0.102996    0.101290
C      -0.397147   -0.701156   -0.942199
C      -0.144420   -2.159788   -0.601844
C      -1.083690   -3.152043   -1.278994
O       1.233962   -2.502312   -0.914056
C      -0.214070   -2.139823    0.936519
C       0.263059   -0.722510    1.307467
O       1.676791   -0.635399    1.474873
H       0.771331    1.968461    0.493200
H      -0.430049    2.040457   -0.817109
H      -0.944410    1.952879    0.879645
H      -0.651065   -0.376893   -1.948035
H      -0.978060   -3.105241   -2.369532
H      -0.855072   -4.173490   -0.961243
H      -2.127968   -2.932503   -1.035273
H       1.386749   -2.286924   -1.840917
H      -1.249843   -2.285575    1.257877
H       0.407173   -2.917506    1.386680
H      -0.162534   -0.363777    2.250324
H       2.054472   -1.077488    0.701588
