16

O       0.005086    1.412963    0.011043
C      -0.013897    0.009932    0.003052
C      -1.465839   -0.449389    0.011775
O      -2.429109    0.275391    0.023288
N      -1.620933   -1.835381    0.005603
C      -2.860748   -2.632086    0.011208
C      -1.969137   -3.907198   -0.001127
C      -0.767321   -2.945940   -0.006885
O       0.428802   -3.028341   -0.016101
H       0.925183    1.691998    0.002222
H       0.475339   -0.427155   -0.881847
H       0.489189   -0.437300    0.875043
H      -3.462155   -2.479790    0.909352
H      -3.475531   -2.471719   -0.876412
H      -2.028739   -4.537218    0.887818
H      -2.042911   -4.529870   -0.894170
