17

C      -0.211719    1.579754    0.297717
C      -0.155248    0.075905    0.218013
O       0.838985   -0.531098   -0.570579
C       0.910529   -0.785242    0.842265
C       2.067055   -0.095850    1.499664
O       2.436877   -0.280675    2.632009
C       0.449526   -2.189766    1.247169
C       0.985610   -2.802640    2.517227
O      -0.347879   -2.754503    0.537363
H       0.779121    2.035665    0.327873
H      -0.738105    1.966965   -0.580807
H      -0.771439    1.890706    1.185365
H      -1.119153   -0.431482    0.152625
H       2.576709    0.622007    0.823272
H       0.805773   -2.145401    3.371923
H       0.508209   -3.772005    2.664092
H       2.072160   -2.921062    2.456809
