18

C      -0.184028    1.429444    0.310765
N       0.037155    0.019610    0.011465
C       0.468632   -0.422887   -1.305894
C       0.828044    0.556901   -2.417326
C       2.319881    0.866551   -2.396268
O       2.781603    1.277500   -1.096455
C       2.559308    0.452367   -0.036916
O       3.236801    0.554020    0.948691
C       1.401097   -0.504559   -0.131332
H       0.518813    2.129164   -0.161346
H      -1.199445    1.692215   -0.001626
H      -0.116569    1.562225    1.393894
H      -0.019385   -1.340690   -1.626306
H       0.573360    0.120972   -3.388170
H       0.250157    1.482452   -2.326971
H       2.897431   -0.011658   -2.711145
H       2.575150    1.695847   -3.059809
H       1.586599   -1.437073    0.393337
