14

C       0.002835    1.490196    0.088749
C       1.297884    0.740738    0.024134
O       1.980148    0.422905    1.257622
C       1.134833   -0.408474    1.875665
C      -0.007410   -0.763466    1.232153
C      -0.605608   -1.633092    2.169865
N       0.119566   -1.771736    3.264999
O       1.278016   -0.938974    3.069034
C      -0.030447   -0.027845   -0.056337
H      -0.311749    1.919070    1.033611
H      -0.236118    2.082920   -0.787915
H       2.000667    0.868910   -0.787565
H      -1.534531   -2.184452    2.117332
H      -0.377679   -0.478628   -0.978173
