23

C       0.044528    1.362480    0.008421
O       0.009610   -0.042955    0.002303
C      -1.303892   -0.559416    0.011413
C      -1.225761   -2.081461    0.003615
C      -2.579790   -2.746962    0.012101
C      -3.720312   -2.622186   -1.052925
C      -4.261684   -3.603870    0.022462
C      -2.863295   -4.280960    0.007992
C      -3.702457   -2.631240    1.096939
H       1.094547    1.665553    0.000645
H      -0.454561    1.789465   -0.876643
H      -0.439011    1.781327    0.905917
H      -1.848357   -0.206108    0.904417
H      -1.863901   -0.197839   -0.868578
H      -0.662465   -2.398720   -0.882674
H      -0.647322   -2.407013    0.877049
H      -4.222007   -1.652794   -1.128617
H      -3.511429   -3.040797   -2.042129
H      -5.232796   -4.099486    0.028441
H      -2.588083   -4.825354   -0.900476
H      -2.573059   -4.832963    0.907147
H      -3.477225   -3.058147    2.078984
H      -4.202759   -1.662553    1.189094
