20

C      -0.078475    1.545952    0.126798
C       0.049983    0.041738   -0.021964
C       1.214428   -0.553496   -0.876528
C       1.140649   -1.764787    0.078627
C       0.605353   -0.807496    1.165843
O       0.114482   -2.677473   -0.340889
C      -1.106847   -2.138387   -0.638092
N      -2.077857   -2.855335   -1.017008
C      -1.248319   -0.628266   -0.492472
H       0.864342    1.989980    0.463202
H      -0.350930    2.016121   -0.825228
H      -0.852798    1.806843    0.857554
H       1.044099   -0.740411   -1.940252
H       2.144215    0.005572   -0.740967
H       2.021000   -2.379283    0.264741
H       1.421056   -0.296007    1.683960
H      -0.099461   -1.217304    1.894370
H      -1.795301   -3.836929   -1.054861
H      -2.065433   -0.430906    0.210347
H      -1.567539   -0.223254   -1.459243
