19

C      -0.133230    1.423321   -0.234053
C      -0.035071   -0.085561    0.025682
C       0.885603   -0.403554    1.213551
C      -1.414434   -0.673669    0.274904
O      -2.344793   -0.435972   -0.855535
C      -2.463847   -1.770362   -1.114467
O      -3.030102   -2.306013   -2.013764
C      -1.614763   -2.197888    0.092428
O      -0.457721   -2.940814   -0.187783
H       0.854153    1.836754   -0.460901
H      -0.797224    1.637221   -1.075326
H      -0.520848    1.949843    0.646309
H       0.371313   -0.574599   -0.867075
H       0.501391    0.040294    2.139850
H       0.985919   -1.481572    1.361411
H       1.883558    0.010220    1.040605
H      -1.864424   -0.268538    1.186498
H      -2.219830   -2.655206    0.887328
H      -0.714518   -3.692622   -0.733746
