21

C      -0.012029    1.533682    0.061061
C       0.009763    0.031731   -0.028771
C      -0.006543   -0.616255   -1.196265
C      -0.019828   -2.115498   -1.340708
C      -0.348081   -2.826895   -0.022580
C       0.436874   -2.190426    1.144067
C       0.042819   -0.703663    1.292686
C       0.248936   -2.919990    2.393726
C       0.069994   -3.516460    3.422486
H       0.884009    1.915539    0.567591
H      -0.068886    1.997371   -0.927443
H      -0.870970    1.882152    0.649767
H      -0.012379   -0.039389   -2.119303
H      -0.747626   -2.406258   -2.109007
H       0.954375   -2.458785   -1.721295
H      -1.419793   -2.741924    0.192574
H      -0.119563   -3.894471   -0.090151
H       1.504464   -2.226613    0.883185
H       0.742733   -0.208307    1.977146
H      -0.939491   -0.635892    1.781446
H      -0.076283   -4.046434    4.330703
