15

N       0.024892    1.334877    0.445884
C      -0.061827    0.009927    0.074879
N      -1.163043   -0.627942    0.125538
C      -1.132581   -1.961538   -0.466316
C       0.143718   -2.727911   -0.202449
N       0.149721   -3.975192    0.005464
O       1.294297   -1.988250   -0.179133
C       1.199091   -0.602119   -0.494456
H       0.887763    1.636719    0.872589
H      -0.805122    1.680725    0.908373
H      -1.961179   -2.558055   -0.083281
H      -1.278689   -1.889017   -1.556384
H       1.106250   -4.306231    0.149730
H       1.208950   -0.458475   -1.585057
H       2.104674   -0.137674   -0.093957
