20

C       0.227864    1.493613   -0.044334
C       0.032781   -0.024409    0.044637
C       0.724949   -0.602288    1.284868
C      -1.467939   -0.410303    0.044644
C      -2.205626   -0.047954   -1.203311
C      -3.155088    0.904585   -1.501036
N      -3.495158    0.812188   -2.817737
N      -2.810903   -0.147990   -3.365903
N      -2.029740   -0.671379   -2.397608
H       1.291209    1.747863   -0.093257
H      -0.261589    1.912827   -0.927829
H      -0.192264    1.990548    0.838563
H       0.493155   -0.479450   -0.844276
H       0.290570   -0.188336    2.202570
H       0.625542   -1.692033    1.331297
H       1.792526   -0.361561    1.286422
H      -1.557557   -1.489988    0.222430
H      -1.963049    0.081042    0.889938
H      -3.606215    1.635469   -0.849111
H      -1.420745   -1.441881   -2.623342
