27

C       0.963294    0.779139    0.424135
C       0.795541   -0.713183    0.111993
C       1.387779   -1.111417   -1.236973
C       2.939395   -1.218611   -1.443187
C       3.789970   -1.468613   -0.197898
C       2.671484   -2.457609   -2.363195
C       3.612184   -3.656004   -2.342844
C       1.224314   -2.571181   -1.777911
C       0.983656   -3.669466   -0.741881
H       2.019007    1.069175    0.448793
H       0.472527    1.397078   -0.336291
H       0.526472    1.035826    1.394532
H       1.241334   -1.307702    0.917693
H      -0.274702   -0.959942    0.114020
H       0.991254   -0.422793   -1.993741
H       3.370962   -0.365647   -1.978017
H       3.427631   -2.302418    0.409855
H       4.824642   -1.695646   -0.477207
H       3.813442   -0.582715    0.445395
H       2.593207   -2.103503   -3.397480
H       3.745036   -4.070162   -1.339051
H       3.232441   -4.460635   -2.982787
H       4.603989   -3.380722   -2.719203
H       0.449875   -2.664590   -2.547547
H       1.708541   -3.655572    0.076857
H      -0.012293   -3.571026   -0.296754
H       1.036311   -4.659198   -1.208252
