20

C       0.005163    1.528254   -0.037440
C       0.028222    0.021949   -0.058095
C       0.528068   -0.947381   -1.126777
N       0.052683   -1.940774   -0.072832
C       0.549899   -0.971672    1.040801
C      -0.790472   -1.043730    1.744319
C      -1.297061   -1.885681    2.863234
C      -1.351038   -0.365436    2.950879
C      -1.130524   -0.986819    0.268566
H       1.017524    1.937399   -0.129106
H      -0.589821    1.922924   -0.868649
H      -0.427669    1.902313    0.895972
H      -0.028379   -1.010887   -2.068818
H       1.606161   -0.996166   -1.317674
H       1.563314   -1.059633    1.438531
H      -2.231765   -2.419427    2.725556
H      -0.575985   -2.404511    3.486433
H      -0.667001    0.128098    3.634148
H      -2.322269    0.113170    2.873506
H      -2.090908   -1.092576   -0.240759
