17

C       0.157569    0.957677    0.452893
O      -0.193797    0.052842   -0.583437
C      -1.372814   -0.618734   -0.333832
C      -1.589202   -1.993690   -0.909829
C      -0.358542   -2.727250   -1.338581
C       0.451797   -3.011417   -0.311572
C      -0.137624   -2.508102    0.958060
O       0.320275   -2.611396    2.073581
C      -1.447209   -1.831703    0.592732
H       1.086438    1.442553    0.146582
H      -0.617715    1.725054    0.594345
H       0.314929    0.432583    1.403533
H      -2.254018    0.026725   -0.295728
H      -2.535936   -2.209433   -1.392009
H      -0.156225   -2.941471   -2.381613
H       1.421962   -3.488263   -0.352508
H      -2.273204   -1.902908    1.288940
