17

C      -0.158525    1.600995    0.016049
C      -0.042653    0.086004    0.003892
C       1.165579   -0.585882   -0.687087
C       2.124595   -0.334953    0.532391
N       2.543640   -1.761986    0.698871
C       1.114148   -1.832970    0.261700
C       0.712578   -0.615368    1.165142
C       0.382110   -0.644941    2.563644
N       0.083849   -0.641413    3.681210
H       0.800159    2.080320    0.238953
H      -0.499357    1.970448   -0.956760
H      -0.881176    1.931945    0.768865
H      -1.004978   -0.384597   -0.226575
H       1.448217   -0.587983   -1.740052
H       2.782935    0.508519    0.736412
H       3.160007   -2.037624   -0.070692
H       0.558900   -2.763278    0.141232
