13

O       0.035269    1.391667   -0.309289
C       0.071312    0.092289    0.242241
C      -1.320831   -0.494702    0.288498
O      -1.826830   -1.047471   -0.927768
C      -1.588066   -1.956446    0.147474
C      -0.491537   -2.891106   -0.033531
N       0.383497   -3.632792   -0.167304
C      -2.769798   -2.520644    0.774361
N      -3.707246   -2.958257    1.287161
H      -0.177699    1.312260   -1.245764
H       0.743731   -0.579982   -0.306325
H       0.451000    0.195307    1.263897
H      -2.058136    0.073607    0.854851
