16

O       0.488128    0.860951   -1.456758
C       0.210805    1.479784   -0.444673
N       1.080781    1.660060    0.590265
C       2.429813    1.124874    0.552551
C       3.394538    1.998256   -0.283828
C       4.751793    1.471566   -0.269644
C       5.860038    1.008268   -0.228474
C      -1.093776    2.093306   -0.226388
C      -2.178063    2.591049   -0.078105
H       0.785858    2.221928    1.371997
H       2.795189    1.039421    1.578635
H       2.390671    0.123149    0.118429
H       3.012859    2.040464   -1.309675
H       3.384623    3.024215    0.104632
H       6.843805    0.609315   -0.209319
H      -3.141015    3.025326    0.039396
