14

O       0.036825   -0.061913    0.001822
C      -0.029874    1.134534    0.010650
C      -1.163997    2.183027    0.029079
C      -0.007683    3.266114    0.025377
N       0.926873    2.122399    0.007830
C       0.046316    4.098378   -1.176153
C       0.089716    4.770342   -2.170585
C       0.070380    4.080884    1.237524
C       0.133833    4.738285    2.240577
H      -1.790493    2.197470   -0.862328
H      -1.773265    2.184874    0.932452
H       1.936621    2.103110   -0.001852
H       0.129384    5.368579   -3.047619
H       0.191286    5.323519    3.125364
