18

O      -0.249810    0.226608    0.534897
C       0.050398    1.115645   -0.215408
C       1.348024    1.898612   -0.108304
O       1.366884    2.858573   -1.142744
C       2.498097    3.653552   -1.174614
C       3.987134    3.275305   -1.396446
N       4.016772    4.808855   -1.313484
C       2.755009    4.764085   -2.196513
C       3.050810    4.658518   -0.128649
H      -0.600344    1.441618   -1.056075
H       1.398098    2.365191    0.887836
H       2.192134    1.195477   -0.183254
H       4.534678    2.789304   -0.585355
H       4.279349    2.886348   -2.374781
H       2.956989    4.476126   -3.230695
H       2.148453    5.670544   -2.135958
H       2.469191    5.560495    0.076233
H       3.531646    4.271025    0.772752
