19

O       0.194236    1.406544    0.124162
C       0.060639   -0.015066    0.013541
C      -1.367322   -0.507197   -0.093619
C      -2.208574   -0.069673   -1.294867
C      -1.337302    0.365723   -2.479071
C      -0.442699   -0.885547   -2.221017
C      -1.541410   -1.434004   -1.267018
C       0.740658   -0.546723   -1.297578
O       1.657018    0.371643   -1.836142
H      -0.598022    1.799990   -0.256644
H       0.559466   -0.419325    0.898997
H      -1.932907   -0.700923    0.810989
H      -3.257532    0.164526   -1.154659
H      -1.889526    0.275027   -3.417492
H      -0.843833    1.343257   -2.460010
H      -0.167733   -1.471187   -3.096951
H      -1.971633   -2.425082   -1.222841
H       1.272373   -1.478446   -1.057622
H       1.506299    1.195304   -1.347255
