21

C      -0.002078    1.509695   -0.108885
C      -0.083638   -0.006721   -0.117496
O       0.654998   -0.485064   -1.236422
C       0.768898   -1.866167   -1.298555
O      -0.514042   -2.443874   -1.559221
C      -0.353269   -3.627324   -2.332430
C       0.923600   -3.429364   -3.131009
C       1.070454   -2.098142   -3.817912
C       1.656487   -2.303717   -2.444871
H       1.037562    1.840487   -0.030589
H      -0.423318    1.921097   -1.030575
H      -0.562013    1.915351    0.739166
H       0.339034   -0.425512    0.810702
H      -1.125580   -0.343981   -0.186373
H       1.148106   -2.251426   -0.332292
H      -0.261969   -4.513967   -1.684914
H      -1.253870   -3.744020   -2.945757
H       1.442368   -4.300319   -3.513177
H       1.766378   -2.038974   -4.646778
H       0.198954   -1.458227   -3.902985
H       2.728580   -2.306468   -2.295038
