17

O      -0.079908    1.304730   -0.095581
C       0.002865   -0.090745   -0.031951
C       1.163109   -0.651055   -0.823142
O       1.249841   -2.069695   -0.787134
C       0.224213   -2.715458   -0.098153
C      -0.357686   -2.264288    1.208618
C      -1.215699   -2.289477   -0.075707
C      -1.344169   -0.747983   -0.008452
C      -0.489138   -0.721412    1.251909
H       0.636748    1.669266    0.436924
H       1.073188   -0.321222   -1.868038
H       2.105769   -0.239562   -0.428122
H       0.374926   -3.787542   -0.179839
H      -0.411237   -2.896424    2.086700
H      -2.032511   -2.946830   -0.347320
H      -2.243165   -0.188936   -0.229277
H      -0.633333   -0.136338    2.150863
