15

C       0.002731    1.536488   -0.065248
C       1.312952    0.807092   -0.076630
C       0.018782    0.022692    0.038697
C      -0.338002   -0.638133    1.304955
C      -0.160883   -0.323525    2.638135
N      -0.697164   -1.310470    3.408280
N      -1.201293   -2.229087    2.638780
N      -0.987190   -1.827314    1.365906
H      -0.272416    2.086733    0.827334
H      -0.356647    1.970729   -0.991279
H       1.859105    0.737280   -1.010501
H       1.937013    0.856207    0.808401
H      -0.290434   -0.518970   -0.849964
H       0.311851    0.539148    3.079039
H      -1.306989   -2.407487    0.606694
