18

C      -0.020294    1.356271    0.048416
O      -0.081748   -0.054337   -0.059885
C      -1.360795   -0.559297   -0.061273
C      -2.504273   -0.336091   -1.077116
C      -3.049322   -1.358724   -0.057914
C      -1.663910   -2.078431    0.098576
C      -1.709623   -1.989317    1.638289
C      -2.355318   -0.670516    1.165102
H       1.036350    1.631878    0.041479
H      -0.523152    1.849848   -0.794720
H      -0.477228    1.709437    0.983567
H      -2.986359    0.646814   -1.088121
H      -2.333045   -0.698747   -2.095844
H      -4.021315   -1.846583   -0.037604
H      -1.280147   -2.871658   -0.544683
H      -2.365217   -2.699816    2.151336
H      -0.747718   -1.909747    2.152034
H      -2.768696    0.152455    1.750369
