15

C      -0.132647    1.451341    0.218508
C      -0.023280   -0.034804    0.119919
N      -0.182595   -0.679120   -1.034315
N      -0.008846   -1.982706   -0.740477
C       0.264083   -2.209408    0.566242
C       0.257610   -0.961001    1.152033
O       0.527372   -0.636289    2.463452
C      -0.320929   -1.111015    3.417827
O      -0.132976   -0.931778    4.579388
H       0.801294    1.895028    0.578578
H      -0.362877    1.869205   -0.763232
H      -0.920828    1.749050    0.918157
H      -0.091074   -2.662054   -1.477081
H       0.451255   -3.192888    0.965390
H      -1.169683   -1.664402    2.976054
