15

N      -0.078839   -1.141171   -0.081357
C       0.002447    0.011591   -0.029239
C       0.039164    1.431958    0.116786
O       0.280709    2.264627   -1.026583
C       1.153455    2.411021    0.093625
C       0.449251    3.309601    1.125862
C      -0.706315    2.279109    1.146314
C      -2.164412    2.384464    1.333911
N      -1.299330    1.782171    2.374046
H       2.210487    2.240012   -0.070019
H       0.960416    3.346940    2.090173
H       0.221893    4.317425    0.773844
H      -2.605915    3.337823    1.609337
H      -2.804313    1.736271    0.740921
H      -1.372744    0.766281    2.357967
