18

C      -0.185048    1.482703    0.163703
N       0.399842    0.154703   -0.031726
C       0.822270   -0.486587    1.184822
C      -0.205942   -1.185699    2.114738
O      -1.203669   -0.921918    2.705705
O       0.417931   -2.412541    2.023949
C       1.390787   -1.898749    1.079278
C       1.792687   -2.669741   -0.126436
C       2.777443   -2.420442    1.013486
H       0.575947    2.151316    0.581116
H      -0.486504    1.884821   -0.807252
H      -1.055337    1.495182    0.835697
H      -0.252923   -0.443132   -0.528226
H       1.460638    0.200286    1.751373
H       1.400444   -3.674909   -0.233733
H       1.921591   -2.117616   -1.051523
H       3.586725   -1.714537    0.858936
H       3.021532   -3.263711    1.650081
