18

N      -0.434824    1.311190    0.157014
C      -0.094976    0.023698   -0.110794
O       1.007393   -0.328807   -0.477041
C      -1.278894   -0.977504    0.024128
C      -0.854387   -2.407597   -0.310875
C      -2.038661   -3.292570   -0.694131
O      -3.047331   -3.340608    0.312135
C      -1.929181   -0.845755    1.395826
O      -2.505942    0.145306    1.774825
H       0.307187    1.992091    0.181335
H      -1.301710    1.506848    0.637026
H      -2.036242   -0.627984   -0.690506
H      -0.128932   -2.379305   -1.128418
H      -0.320819   -2.844695    0.544404
H      -2.534734   -2.885326   -1.582724
H      -1.689390   -4.301863   -0.953467
H      -2.727911   -3.899656    1.027447
H      -1.811261   -1.722986    2.062827
