17

O       0.063789    1.347928    0.182858
C       0.056364    0.000217   -0.006571
C       0.031884   -0.809756   -1.109622
N       0.065818   -0.667531   -2.528410
C       0.418854   -2.043301   -2.988842
C       0.014200   -3.058761   -1.866305
C       0.037802   -2.159245   -0.661710
C       0.042703   -2.155275    0.706381
N       0.040376   -0.819361    1.097085
H       0.368877    1.751822   -0.636645
H      -0.855651   -0.424168   -2.884502
H      -0.049015   -2.252217   -3.954269
H       1.505288   -2.082573   -3.127321
H      -0.986470   -3.475837   -2.045247
H       0.711878   -3.900363   -1.823703
H       0.043976   -2.940328    1.444024
H       0.114074   -0.479196    2.039676
