25

C      -0.409252    1.472390    0.396977
C       0.031844    0.060907    0.046836
O       0.647615   -0.512301    1.179789
C       1.109626   -1.830182    0.956642
C       1.803538   -2.308589    2.204185
C       1.020204   -2.927978    3.336495
C       1.979789   -3.774327    2.534398
C       1.487430   -4.907735    1.654538
C       1.331474   -6.219962    2.432559
H       0.450882    2.079442    0.693504
H      -0.891165    1.947645   -0.462759
H      -1.118862    1.456556    1.229086
H      -0.834331   -0.547462   -0.267447
H       0.734918    0.075498   -0.804339
H       0.265311   -2.488388    0.694284
H       1.804405   -1.844212    0.098075
H       2.627350   -1.661726    2.493588
H       1.271179   -2.657847    4.356215
H      -0.041387   -3.087310    3.169308
H       2.919179   -4.005351    3.033303
H       0.525914   -4.642876    1.200576
H       2.187254   -5.059980    0.821912
H       0.984241   -7.029080    1.782350
H       2.284608   -6.532391    2.873544
H       0.610776   -6.108540    3.249369
