18

C      -0.162985    1.553068    0.061476
C       0.036007    0.043726    0.029898
C       1.139566   -0.564753   -0.927658
O       2.024199    0.333550   -1.567868
C       1.770947   -1.280520    0.257973
C       2.185045   -0.267152    1.304927
C       0.741374   -0.662612    1.196534
O       0.067607   -1.311418    2.218883
H       0.784051    2.083012    0.192806
H      -0.616178    1.912270   -0.870204
H      -0.832823    1.842362    0.878779
H      -0.917314   -0.460681   -0.159244
H       0.701500   -1.263137   -1.651933
H       1.539902    0.783429   -2.267629
H       2.178647   -2.283197    0.246139
H       2.694430   -0.705585    2.157268
H       2.546370    0.712317    1.008916
H      -0.001970   -0.708142    2.966317
