25

C      -0.211215    1.514550   -0.055037
C      -0.119590   -0.018578    0.004269
C      -1.518095   -0.647049   -0.034630
C       0.805173   -0.515095   -1.108788
C       1.009858   -2.020666   -1.373273
C       0.608693   -1.683332   -2.833326
C       1.772863   -1.663266   -3.819588
C      -0.601440   -2.411643   -3.397805
O       0.260323   -0.320463   -2.437469
H       0.776774    1.977452    0.040440
H      -0.639123    1.832708   -1.011242
H      -0.845081    1.904063    0.747736
H       0.366414   -0.300268    0.950554
H      -2.009645   -0.426168   -0.986527
H      -1.488958   -1.733937    0.089620
H      -2.140570   -0.243891    0.770329
H       1.764709    0.017046   -1.016537
H       2.021936   -2.402584   -1.226810
H       0.301768   -2.674622   -0.861192
H       2.097065   -2.681472   -4.061482
H       1.474417   -1.167859   -4.749049
H       2.627070   -1.120485   -3.404290
H      -1.429772   -2.406506   -2.684832
H      -0.940796   -1.927505   -4.319662
H      -0.350517   -3.452142   -3.631760
