23

C      -0.114499    1.464968    0.045393
O       0.148749    0.089831    0.259970
C      -0.978730   -0.729251    0.120895
C      -1.496233   -1.081788   -1.305759
C      -1.685414   -2.541843   -0.808319
C      -0.716632   -2.227810    0.365414
C       1.141238    2.251028    0.302044
C       2.175534    2.391909   -0.783618
C       1.340322    3.581067   -0.380270
H      -0.459859    1.637568   -0.988049
H      -0.925128    1.799866    0.715955
H      -1.804159   -0.356781    0.749767
H      -2.367628   -0.549390   -1.694237
H      -0.675927   -1.006960   -2.026107
H      -2.705392   -2.724694   -0.459289
H      -1.404836   -3.346235   -1.490720
H       0.319191   -2.463765    0.106077
H      -0.939495   -2.633886    1.354393
H       1.514872    2.163381    1.318067
H       3.222062    2.375613   -0.501166
H       1.966374    1.924943   -1.740412
H       0.573164    3.920211   -1.069014
H       1.811293    4.379053    0.182555
