21

C      -0.095740    1.638820    0.066594
C      -0.121141    0.136521    0.364358
C      -1.426330   -0.536840   -0.051441
C      -1.670210   -0.698022   -1.593633
C      -1.777754   -2.220371   -1.377723
O      -2.002922   -3.157931   -2.092593
C      -1.504389   -2.074512    0.089098
C      -0.651090   -3.025297    0.904553
C      -2.117839   -2.931756    1.173322
H       0.852889    2.088061    0.375850
H      -0.223696    1.835856   -1.003224
H      -0.900617    2.160344    0.596408
H       0.716726   -0.358855   -0.143829
H       0.039105   -0.022489    1.439016
H      -2.270334   -0.038747    0.438491
H      -2.571711   -0.232157   -2.000154
H      -0.820140   -0.414195   -2.223002
H      -0.274436   -3.901305    0.387171
H       0.034288   -2.582807    1.619500
H      -2.445299   -2.422732    2.074045
H      -2.757169   -3.744052    0.843560
