15

C       0.064241    1.441172   -0.130903
O       0.029040    0.009592   -0.049163
C       0.592131   -0.671555   -1.033908
C       0.697522   -2.032768   -1.202102
C       1.391493   -2.194005   -2.424726
C       1.663860   -0.942317   -2.920960
O       1.158771    0.003128   -2.042308
C       2.337817   -0.503614   -4.115481
O       2.521477    0.648212   -4.453698
H       1.095614    1.803755   -0.148396
H      -0.455820    1.791737   -1.026539
H      -0.445462    1.794525    0.764743
H       0.322931   -2.786920   -0.531391
H       1.666523   -3.124759   -2.898042
H       2.692792   -1.361458   -4.729928
