16

O      -0.054717   -0.005256   -0.017436
C       0.035185    1.204963   -0.018017
C       1.286344    1.943464   -0.003467
C       1.479417    3.277006   -0.002979
C       2.996961    3.418314    0.015631
C       3.386722    2.321778   -1.043747
C       2.714160    1.383990    0.015190
C       3.360213    2.325014    1.087686
H      -0.872852    1.849503   -0.030311
H       0.747935    4.074309   -0.013254
H       3.432819    4.416125    0.019539
H       2.924163    2.386623   -2.031275
H       4.467926    2.179077   -1.127588
H       2.835697    0.303571    0.018339
H       4.438995    2.182625    1.198821
H       2.873240    2.392837    2.063203
