18

C       0.021043    1.572904    0.098171
N       0.019531    0.128432    0.166088
C      -1.031045   -0.569643    0.939983
C      -1.611356   -1.800152    0.206468
N      -0.382901   -2.563270    0.566277
C       0.050568   -1.525974    1.513361
C       1.101379   -0.534584    0.926025
C       2.211339   -1.063356    0.135185
N       3.108639   -1.475599   -0.464882
H       0.895025    1.911163   -0.467306
H      -0.872343    1.915474   -0.432979
H       0.042927    2.062613    1.090134
H      -1.688856    0.066354    1.537170
H      -2.528677   -2.174543    0.679988
H      -1.771053   -1.689411   -0.870190
H      -0.533096   -3.479478    0.967172
H       0.168577   -1.806812    2.560239
H       1.512272    0.103330    1.726301
