19

C       0.063378    1.472634    0.105842
C      -0.011078   -0.013588   -0.055650
C       0.640542   -0.935161   -1.121510
C       0.046576   -1.810752    0.001305
O       0.616155   -0.870017    0.994634
C      -1.251130   -0.965242   -0.036330
C      -2.152590   -0.955738    1.197156
C      -3.005542   -2.136523    1.269446
C      -3.696097   -3.120084    1.302920
H       1.106191    1.797881    0.167157
H      -0.405085    1.969671   -0.749506
H      -0.452053    1.792539    1.016782
H       0.184780   -0.980401   -2.114142
H       1.730266   -0.901314   -1.148879
H       0.169540   -2.875937    0.193109
H      -1.825554   -1.018568   -0.965951
H      -1.516309   -0.892501    2.086286
H      -2.779695   -0.054273    1.185944
H      -4.311077   -3.984197    1.348282
