20

C       0.405412    1.354270    0.388338
C      -0.224853    0.108412   -0.246784
C       0.500268   -0.364764   -1.469773
C       0.618662   -1.776832   -1.934568
C       0.966478   -1.587717   -3.424070
C       0.110788   -0.397730   -3.928800
C       0.804058    0.391470   -2.788821
C       2.019306   -0.587858   -2.842250
N       1.834686   -1.065242   -1.398125
H       1.448956    1.160894    0.653179
H       0.384477    2.207072   -0.298390
H      -0.131675    1.646033    1.295737
H      -0.236166   -0.710389    0.483143
H      -1.273692    0.306451   -0.507275
H       0.187486   -2.631636   -1.426675
H       1.204013   -2.458083   -4.032112
H       0.437384   -0.054072   -4.915813
H      -0.979307   -0.493969   -3.909330
H       0.880915    1.476734   -2.774169
H       3.011399   -0.379027   -3.236600
