16

O      -0.215805    0.239033    0.506010
C      -0.122666    1.353867    0.051964
C       1.170123    2.079275   -0.049654
C       1.584141    2.969830   -1.218819
C       0.410816    3.796913   -1.777108
N       0.199084    4.320348   -0.415253
C      -0.948851    4.778044    0.153009
O      -1.945509    5.072927   -0.469369
C       1.323134    3.584301    0.136979
H      -1.019657    1.897994   -0.309707
H       2.001814    1.512852    0.360163
H       2.527981    2.813219   -1.720662
H       0.734898    4.579139   -2.469137
H      -0.445643    3.268848   -2.203018
H      -0.851673    4.882468    1.252847
H       1.992457    4.018187    0.869572
