15

C       0.118644    1.505130    0.025366
C       0.003241   -0.000736    0.081682
C      -1.233575   -0.595795   -0.557691
O       1.210584   -0.716869   -0.160950
C       0.680557   -0.792062    1.158434
C       1.446418   -0.150062    2.269586
O       2.317148    0.672101    2.135684
H       1.043022    1.844476    0.492427
H       0.116427    1.829470   -1.020866
H      -0.735366    1.977436    0.522057
H      -1.289465   -0.298337   -1.610445
H      -1.214136   -1.687004   -0.510710
H      -2.140107   -0.235980   -0.060377
H       0.233137   -1.751375    1.426481
H       1.126705   -0.496937    3.278835
