19

O       0.097673    1.453637   -0.184080
C       0.022450    0.037437   -0.189498
C      -1.344574   -0.478536    0.280239
C      -1.417590   -1.981929    0.307470
O      -1.459333   -2.630633   -0.996872
C      -2.570462   -2.802901   -0.114127
C      -2.551329   -4.109257    0.669699
C      -1.289280   -3.984918    1.500335
C      -0.680623   -2.811031    1.318963
H      -0.508230    1.781975   -0.855991
H       0.248502   -0.379794   -1.181371
H       0.810310   -0.301004    0.491949
H      -1.553247   -0.076045    1.278512
H      -2.120506   -0.098511   -0.395581
H      -3.508983   -2.373138   -0.456267
H      -3.446619   -4.211753    1.296459
H      -2.525945   -4.980538    0.004066
H      -0.929759   -4.787915    2.133881
H       0.231338   -2.486588    1.805043
