16

C      -0.041396    1.520525    0.110318
N      -0.014829    0.075730    0.123858
C      -1.241122   -0.649668    0.494998
C      -0.373022   -1.678864    1.266300
O      -0.178712   -2.827489    0.477151
C       0.757190   -0.604637    1.174643
C      -0.806852   -2.033981    2.622025
N      -1.120551   -2.333023    3.693754
H       0.959524    1.905981   -0.108901
H      -0.714360    1.869770   -0.679368
H      -0.377710    1.959547    1.069111
H      -1.911678   -0.090178    1.164416
H      -1.810277   -1.070900   -0.338647
H       0.479832   -3.387738    0.904089
H       1.740221   -0.977814    0.867390
H       0.854566   -0.028812    2.108365
