18

C      -0.219671    1.491926   -0.001962
C      -0.036128   -0.027146   -0.002890
C      -1.350225   -0.774365    0.233952
N       0.782533   -0.552586   -1.127189
C       1.909307   -1.031286   -0.325357
C       1.131543   -0.515538    0.901297
O       1.325850   -0.490073    2.076781
C       0.611416   -0.606854   -2.466615
O       1.413597   -1.087770   -3.240866
H       0.726801    2.007166   -0.186430
H      -0.933234    1.794898   -0.774859
H      -0.607755    1.817127    0.967738
H      -2.085487   -0.515098   -0.534490
H      -1.200983   -1.857284    0.215984
H      -1.762667   -0.497738    1.208657
H       2.070509   -2.114931   -0.356094
H       2.862623   -0.527327   -0.521385
H      -0.351481   -0.159685   -2.785337
