17

C       0.208837    1.522892   -0.146952
C       0.046846    0.035559    0.087623
O       0.835025   -0.775861   -0.827119
C       1.337054   -1.591664    0.251280
C       2.742284   -1.156223    0.721034
C       2.079570   -0.195428    1.759689
C       0.668975   -0.672479    1.312609
H       1.253455    1.834277   -0.065311
H      -0.141156    1.780571   -1.151670
H      -0.386032    2.091603    0.576207
H      -1.015842   -0.233772   -0.011446
H       1.127394   -2.654911    0.103033
H       3.324130   -1.959976    1.180876
H       3.338565   -0.690357   -0.066536
H       2.303834   -0.461762    2.795031
H       2.288120    0.869983    1.637597
H      -0.016897   -1.011850    2.088100
