13

C      -0.018066    1.483436    0.022800
C      -0.005350   -0.012495   -0.000669
N       0.143449   -0.622205   -1.189955
C       0.148804   -1.941136   -1.161931
C       0.005480   -2.626175    0.053197
N      -0.139448   -1.963431    1.207354
N      -0.144698   -0.643165    1.178114
C       0.009134   -4.058304    0.101640
N       0.018304   -5.214674    0.089903
H       0.916277    1.871896   -0.394482
H      -0.829400    1.860441   -0.607759
H      -0.145002    1.845005    1.042730
H       0.266607   -2.476657   -2.100563
