15

C       0.047076    1.501551   -0.006236
C      -0.050810    0.015444   -0.005146
C      -1.137649   -0.789373   -0.159292
N      -0.680652   -2.108161   -0.077287
C      -0.992650   -3.447984   -0.108345
N       0.098299   -4.159208    0.063397
N       1.184557   -3.311263    0.216477
C       0.675188   -2.106164    0.126094
N       1.072235   -0.794644    0.170669
H       0.704189    1.861814   -0.806319
H      -0.940251    1.942153   -0.158008
H       0.443442    1.880318    0.943068
H      -2.169963   -0.532859   -0.317395
H      -1.987254   -3.834531   -0.253421
H       2.015314   -0.481651    0.313604
