24

C      -5.246193   -0.726824    1.796046
C      -4.081924   -1.707675    1.634009
C      -3.227362   -1.410145    0.392497
O      -2.661846   -0.097788    0.446485
C      -2.152871   -2.464850    0.131651
C      -1.134153   -2.668361    1.239831
C      -2.510696   -3.622791   -0.745555
N      -1.577173   -2.605617   -1.210538
C      -1.985062   -1.732943   -2.303112
H      -5.806189   -0.924064    2.714997
H      -4.879128    0.302366    1.828469
H      -5.945003   -0.802965    0.955517
H      -3.444375   -1.673064    2.527626
H      -4.455906   -2.736563    1.564885
H      -3.897377   -1.372646   -0.472058
H      -2.092138   -0.053447    1.221986
H      -1.593484   -3.062527    2.152009
H      -0.366807   -3.369586    0.905800
H      -0.624419   -1.730212    1.491661
H      -2.097617   -4.611264   -0.555763
H      -3.511384   -3.630024   -1.180074
H      -3.073468   -1.617206   -2.420663
H      -1.552984   -0.740115   -2.152783
H      -1.594844   -2.146876   -3.238645
