17

C       0.021023    1.430999   -0.160213
O       0.084129    0.015476   -0.013730
C       0.615043   -0.677956   -1.029054
C       0.679636   -2.025002   -1.207576
C       1.386518   -2.206097   -2.448630
N       1.627288   -3.427107   -3.087740
C       1.699626   -0.970913   -2.927689
N       2.349619   -0.579431   -4.091209
O       1.198506   -0.000016   -2.033027
H       1.021257    1.867061   -0.249259
H      -0.567848    1.713702   -1.039457
H      -0.463954    1.800196    0.744121
H       0.271092   -2.780591   -0.557738
H       1.947762   -4.147232   -2.452629
H       2.290627   -3.314630   -3.845377
H       1.751705   -0.106323   -4.762479
H       3.167965   -0.001542   -3.927855
