19

C      -0.116511    1.502345   -0.025377
C       0.044564   -0.019289   -0.050705
C       0.984114   -0.487469   -1.156986
C       2.325250   -0.669229   -0.458483
O       2.189098   -0.322807    0.901022
C       0.802835   -0.569369    1.183205
C       0.625921   -2.081545    1.289764
O       0.913315   -2.712037    0.039665
C       1.538829   -1.875242   -0.895879
H       0.852054    1.988333    0.126102
H      -0.536885    1.868884   -0.967415
H      -0.785307    1.815254    0.783532
H      -0.936537   -0.502282   -0.124566
H       0.881949   -0.095045   -2.162405
H       3.292317   -0.405313   -0.868484
H       0.555693   -0.072421    2.124065
H       1.306878   -2.467290    2.060276
H      -0.402837   -2.343542    1.569042
H       1.899314   -2.457879   -1.736400
