15

O      -0.293831    1.253306   -0.012368
C      -0.004763   -0.066815    0.031503
C      -0.186746   -0.949940    1.171855
C      -1.155528   -1.284793    0.017315
C      -2.564895   -0.947506    0.151728
O      -2.966090   -0.136952    0.970696
C      -0.430652   -1.801149   -1.174986
O      -0.742292   -2.586611   -2.027295
C       0.713906   -0.745777   -1.127257
H      -0.956254    1.450468    0.666435
H       0.561623   -1.695776    1.426869
H      -0.721639   -0.531151    2.019911
H      -3.247248   -1.412150   -0.585915
H       0.702430   -0.148338   -2.041902
H       1.730826   -1.092687   -0.923963
