18

C       0.085306    1.570112   -0.176837
C       0.043133    0.051861    0.010514
O       0.835724   -0.363094    1.108148
C      -1.395225   -0.481454    0.153728
C      -1.452322   -2.020348    0.292142
O      -2.433318   -2.284768    1.304258
C      -2.740995   -1.138723    1.969709
O      -3.521083   -1.077337    2.876078
N      -1.994556   -0.098370    1.425825
H       1.121246    1.902664   -0.275511
H      -0.466689    1.877793   -1.071479
H      -0.348824    2.084917    0.688252
H       0.487951   -0.427681   -0.871060
H       0.347169   -0.121424    1.906460
H      -1.997614   -0.137469   -0.698838
H      -1.759667   -2.520744   -0.627751
H      -0.485646   -2.408869    0.624248
H      -2.385718    0.821520    1.557501
