18

C       0.359788    1.465689   -0.320501
C       0.006617    0.012237   -0.036987
O      -1.367453   -0.139624    0.253005
C       0.621390   -0.994090   -1.059866
C       1.767253   -1.277302   -0.055675
C       0.880507   -0.665533    1.074975
C       1.492483    0.140447    2.108745
C       2.015524    0.824374    2.949288
H       1.430434    1.591901   -0.504578
H      -0.173327    1.814800   -1.214004
H       0.083649    2.098386    0.527372
H      -1.870851    0.401174   -0.364922
H      -0.041890   -1.854057   -1.179997
H       0.893643   -0.606147   -2.044612
H       2.079135   -2.313592    0.081192
H       2.651458   -0.664591   -0.243626
H       0.262967   -1.451395    1.521902
H       2.472913    1.419429    3.700188
