15

O      -0.096468    1.351595   -0.051952
N       0.047244   -0.048886   -0.053419
C      -1.076688   -0.624494   -0.069270
C      -2.546846   -0.296945    0.057698
C      -3.266686   -1.015487   -1.095930
C      -2.468823   -2.347840   -1.110573
C      -3.646983   -2.157875   -0.208575
N      -2.717681   -1.612578    0.875079
C      -1.484339   -2.069141    0.038966
H       0.819179    1.647569   -0.004903
H      -2.922468    0.637255    0.466573
H      -3.749197   -0.615535   -1.977195
H      -2.352998   -2.947804   -2.002882
H      -4.562525   -2.708427   -0.038707
H      -0.836525   -2.850991    0.428530
