20

C       0.470629    0.356505    0.980490
O      -0.032484   -0.549674    0.005298
C       0.745496   -0.713357   -1.140830
C       2.054252   -1.448348   -1.014665
C       0.843447   -2.133724   -1.616908
C       0.595610    0.379992   -2.209292
C      -0.883936    0.670997   -2.525224
C       1.310926    1.613234   -1.850103
N       1.876695    2.585536   -1.582843
H       1.511900    0.128801    1.241388
H       0.415828    1.398450    0.646685
H      -0.156712    0.231821    1.865989
H       2.875446   -1.167714   -1.665366
H       2.353012   -1.756017   -0.019403
H       0.337756   -2.873802   -1.008469
H       0.831768   -2.331334   -2.683427
H       1.083510    0.006549   -3.117796
H      -1.367184   -0.245904   -2.872613
H      -1.405912    1.012621   -1.629785
H      -0.974687    1.434452   -3.301155
