21

C      -0.492310    1.435901    0.112754
C      -0.153390   -0.062172    0.088170
C       0.385390   -0.457462   -1.302249
C       0.381345   -1.952255   -1.646231
N       0.853747   -2.767581   -0.666409
O       0.008468   -2.353497   -2.733970
N       0.791697   -0.543794    1.118239
C       1.804845    0.335596    1.691753
C       0.653941   -0.143868    2.509558
H       0.356929    2.050324   -0.203265
H      -1.312766    1.630443   -0.583630
H      -0.817844    1.777478    1.099898
H      -1.079238   -0.621636    0.273606
H      -0.208880    0.024637   -2.081098
H       1.411793   -0.079493   -1.399624
H       1.051038   -2.377747    0.247910
H       0.821290   -3.761589   -0.822031
H       2.791558   -0.101683    1.814300
H       1.806474    1.385653    1.413097
H      -0.106199    0.588262    2.771407
H       0.785422   -0.937069    3.240417
