18

C       0.470813    0.870191    0.103319
O      -0.206232   -0.119060   -0.657521
C      -1.464262   -0.494590   -0.130045
C      -2.387017   -0.904399   -1.287978
O      -2.208310   -2.318831   -1.484620
C      -1.599301   -2.876906   -0.408355
O      -1.296273   -4.034007   -0.354759
C      -1.375250   -1.806721    0.672111
N      -0.159747   -1.960930    1.450397
H       1.416596    1.066015   -0.407042
H      -0.110047    1.803669    0.143337
H       0.670819    0.531683    1.126419
H      -1.895713    0.328513    0.451044
H      -3.439983   -0.710079   -1.056397
H      -2.112804   -0.393690   -2.212199
H      -2.240288   -1.860407    1.347542
H      -0.146866   -2.902585    1.834871
H       0.628346   -1.916801    0.809096
