16

O      -0.042373    1.373687    0.056360
C       0.038840   -0.000177    0.020970
C       0.738573   -0.948798    1.025723
C       0.042326   -1.867886   -0.001776
C      -1.223913   -0.931051   -0.014281
C      -1.751415   -0.927045   -1.436670
C      -0.648931   -0.935706   -2.191589
C       0.485647   -0.940786   -1.188691
H       0.842902    1.731816    0.183298
H       1.833180   -0.951942    1.023933
H       0.343153   -0.959026    2.045344
H       0.028258   -2.957157   -0.018703
H      -1.905690   -0.936743    0.836859
H      -2.790392   -0.909263   -1.733111
H      -0.552517   -0.919693   -3.267979
H       1.526268   -0.948926   -1.516864
