12

O       0.189032    0.692771    1.372923
C       0.003329    1.399002    0.411112
C       1.090371    1.706733   -0.523168
N       1.959509    1.921457   -1.254405
C      -1.349684    1.981983    0.108066
C      -2.480569    0.966995    0.150338
N      -2.328508    1.936451    1.209065
C      -1.419767    3.107235   -0.791242
N      -1.465667    3.996144   -1.527552
H      -3.314758    1.130974   -0.524102
H      -2.188247   -0.064893    0.322780
H      -1.858538    1.508030    2.008396
