19

C      -0.333489    1.642524   -0.237694
C      -0.027468    0.148540   -0.077177
C      -1.290236   -0.667563    0.213506
O      -1.833580   -0.197581    1.439320
C       0.699843   -0.419839   -1.290697
C       2.177084   -0.473336   -1.302288
O       1.416832   -1.649098   -1.047926
C       0.003270   -0.366103   -2.557512
C      -0.592827   -0.306789   -3.599983
H       0.585788    2.225789   -0.350614
H      -0.956441    1.820107   -1.120401
H      -0.871583    2.004395    0.640298
H       0.644756    0.007583    0.777273
H      -2.006038   -0.547676   -0.614365
H      -1.023202   -1.732605    0.277085
H      -2.642011   -0.686746    1.615565
H       2.704406   -0.451799   -2.254014
H       2.721605   -0.068350   -0.449842
H      -1.112674   -0.262518   -4.525224
