15

C       0.015822    1.555303    0.192010
C      -0.013378    0.043787   -0.095997
C      -1.385425   -0.539108   -0.099863
C      -2.106927   -1.110044   -1.074544
O      -3.345947   -1.493737   -0.600867
C      -3.424464   -1.154164    0.736590
O      -4.375130   -1.355488    1.440868
N      -2.212681   -0.566597    1.030373
H       1.044018    1.927700    0.181608
H      -0.558232    2.105511   -0.558856
H      -0.411309    1.787036    1.173041
H       0.439458   -0.156784   -1.072139
H       0.606201   -0.480182    0.644386
H      -1.896024   -1.314137   -2.109495
H      -1.995537   -0.226683    1.950383
