17

N       0.107719    1.339476    0.140947
C       0.011160   -0.014485    0.044051
C      -1.091905   -0.820292    0.019180
C      -0.658846   -2.271901    0.090858
N       0.826841   -2.267154    0.042226
C       1.379703   -1.719965   -1.190719
C       1.243253   -0.849621    0.017603
C      -2.466967   -0.409192   -0.063670
O      -3.420028   -1.167996   -0.107275
H       0.952629    1.781031   -0.182914
H      -0.726719    1.896303    0.050686
H      -0.976139   -2.746743    1.026416
H      -1.060561   -2.880291   -0.726509
H       2.358300   -2.107255   -1.461449
H       0.709068   -1.520641   -2.024246
H       2.108710   -0.549508    0.603134
H      -2.635832    0.696246   -0.089135
