19

C       0.377282   -0.486209    1.405168
O      -0.262292   -0.022839    0.228689
C      -1.450486   -0.685881   -0.102550
C      -2.653180   -0.237655    0.692055
O      -3.008525    1.113308    0.369176
C      -2.442265    2.095166    1.097270
O      -2.605335    3.252686    0.855367
C      -1.620765   -0.982537   -1.560555
C      -1.367559   -2.114309   -0.587944
H       1.304667    0.082395    1.500821
H      -0.228033   -0.319071    2.307570
H       0.615208   -1.556375    1.343088
H      -3.526435   -0.844993    0.444645
H      -2.474971   -0.326727    1.771507
H      -1.841027    1.712313    1.943693
H      -2.607867   -0.872332   -1.994794
H      -0.800899   -0.686987   -2.203758
H      -0.383858   -2.569055   -0.602701
H      -2.176666   -2.797583   -0.352762
