15

C      -0.002807    1.535244   -0.014793
C      -0.055647    0.035771    0.007035
C      -1.186284   -0.694711   -0.118159
C      -1.177539   -2.149988   -0.089549
N      -2.258412   -2.833553   -0.209686
N       0.107399   -2.676291    0.078683
N       1.264808   -1.989645    0.207722
C       1.166346   -0.714638    0.171413
F       2.296591   -0.020145    0.297225
H       0.638848    1.891589   -0.827544
H      -1.000673    1.958108   -0.145720
H       0.424081    1.924521    0.915543
H      -2.157353   -0.231530   -0.246350
H      -2.078903   -3.838134   -0.168631
H       0.227236   -3.676966    0.112052
