19

C       0.212712    1.204936    0.318028
O      -0.249085   -0.001638   -0.257310
C       0.537643   -0.492462   -1.297032
C       0.383705    0.240650   -2.611853
C       1.864127   -1.120048   -0.927807
C       0.669060   -2.009112   -1.286487
O       0.008749   -2.652968   -0.235031
C       0.690454   -2.743400   -2.526638
C       0.716807   -3.404285   -3.531955
H       1.248035    1.114859    0.676250
H       0.159655    2.049917   -0.382686
H      -0.440567    1.415073    1.167803
H       0.776486    1.260026   -2.537793
H       0.920443   -0.269469   -3.413840
H      -0.674226    0.296986   -2.885534
H       2.695048   -1.054625   -1.621292
H       2.121249   -1.130414    0.125500
H       0.455892   -3.494718   -0.090866
H       0.726283   -3.978089   -4.425440
