22

C       0.688102    1.284115    0.108238
N      -0.033209    0.018964   -0.011589
C      -0.673811   -0.422026    1.113789
O      -0.711293    0.176625    2.172682
C       0.039938   -0.744433   -1.281428
C       1.463565   -1.296859   -1.494426
C      -0.956496   -1.914833   -1.317633
C      -0.329350    0.227510   -2.428004
O      -0.276421   -0.483309   -3.654859
H       1.683926    1.213263   -0.335859
H       0.149552    2.110289   -0.369766
H       0.778912    1.507394    1.170838
H      -1.168150   -1.393806    0.982568
H       1.718608   -2.002256   -0.698523
H       1.521147   -1.809992   -2.456575
H       2.214390   -0.501928   -1.498918
H      -1.976809   -1.587082   -1.097582
H      -0.946966   -2.329281   -2.326656
H      -0.684610   -2.712013   -0.621506
H      -1.336511    0.628967   -2.235404
H       0.373409    1.070865   -2.442969
H      -0.441480    0.136587   -4.370423
