17

C      -0.067761    1.664978    0.051087
C       0.025930    0.155465   -0.044423
C       0.803237   -0.597339   -1.156761
C       2.074794   -0.163362   -0.404454
N       1.146770   -0.569646    0.757840
C       0.815492   -1.789185   -0.156653
C      -0.380164   -2.551130    0.136186
C      -1.345712   -3.232691    0.359519
H       0.835356    2.195762   -0.256875
H      -0.891084    2.017910   -0.579335
H      -0.293790    1.954391    1.082678
H      -0.947569   -0.279108    0.196895
H       0.609852   -0.634322   -2.234760
H       2.961732   -0.797179   -0.490408
H       2.354939    0.888369   -0.400518
H       1.676819   -2.458957   -0.238344
H      -2.202425   -3.826205    0.563844
