17

C      -0.029517    1.442717   -0.099624
N       0.032058    0.019002    0.171837
C      -1.158679   -0.707588    0.084419
C      -2.450044   -0.202295    0.060574
N      -3.316370   -1.268599    0.035167
C      -2.611891   -2.449433    0.027617
C      -1.263078   -2.123448    0.060904
C      -3.255721   -3.700851   -0.006183
C      -3.821114   -4.765676   -0.036432
H       0.979375    1.860693   -0.064842
H      -0.480143    1.689913   -1.075887
H      -0.621346    1.941698    0.676423
H       0.793504   -0.437502   -0.309683
H      -2.813837    0.810784    0.067441
H      -4.318675   -1.209501    0.012444
H      -0.450102   -2.832627    0.074209
H      -4.308989   -5.708094   -0.061393
