19

N      -0.014576    1.339953   -0.101352
C      -0.074274   -0.026192   -0.064705
N      -1.104148   -0.740688    0.166482
C      -0.680094   -2.140043    0.018659
C      -1.535331   -2.897420   -1.002269
C      -3.003012   -3.006676   -0.586674
O      -3.778625   -3.754846   -1.513735
C       0.821007   -2.043231   -0.386076
O       1.110470   -0.630620   -0.355510
H       0.895430    1.736610    0.073656
H      -0.777601    1.798337    0.371147
H      -0.778672   -2.645116    0.990239
H      -1.465717   -2.380571   -1.970048
H      -1.132308   -3.908245   -1.145571
H      -3.080689   -3.545960    0.364479
H      -3.416298   -2.002325   -0.425584
H      -3.822258   -3.248229   -2.330703
H       1.498497   -2.548117    0.307275
H       1.010374   -2.410784   -1.400352
