15

C       0.096876    1.388233    0.051302
O       0.193113   -0.016168    0.090298
C       0.580435   -0.569313   -1.148068
C       0.575954   -2.058107   -1.016104
N       1.332417   -2.843766   -1.784730
N       1.013821   -4.064883   -1.372656
N       0.123971   -4.150518   -0.394847
C      -0.174774   -2.873993   -0.150402
H       1.062139    1.856436   -0.197320
H      -0.648246    1.726019   -0.686404
H      -0.211832    1.720763    1.044895
H      -0.119073   -0.251698   -1.941737
H       1.581670   -0.223546   -1.450243
H       1.440638   -4.884200   -1.773298
H      -0.879873   -2.596009    0.614467
