10

N       0.045324   -1.146677   -0.004333
C       0.021134    0.009701    0.002565
C      -0.006793    1.423369    0.010897
C      -1.091277    2.251488    0.029543
O      -0.697521    3.524140    0.031472
N       0.680851    3.593895    0.014150
C       1.094274    2.344676    0.002210
C       2.483576    2.036726   -0.017270
N       3.603504    1.752885   -0.033205
H      -2.154123    2.068472    0.042141
