18

C       0.189408    1.565159   -0.254676
C       0.026825    0.080654   -0.008271
C       1.220108   -0.840838    0.029737
C       0.421838   -0.593550    1.288775
C       1.019028    0.164586    2.453634
C       1.921337   -0.704438    3.309038
F       2.999205   -1.131190    2.631530
F       2.367524   -0.028535    4.381757
F       1.279245   -1.794410    3.763298
H       1.130014    1.950187    0.149973
H       0.192764    1.775857   -1.329528
H      -0.628323    2.140706    0.193567
H      -0.867782   -0.336168   -0.464083
H       1.157170   -1.815373   -0.441228
H       2.203434   -0.385066   -0.030274
H      -0.224579   -1.407979    1.601904
H       1.622209    1.014178    2.123430
H       0.237580    0.556993    3.113441
