23

C       0.266452    1.435612   -0.304715
C       0.334099   -0.074395   -0.066435
C       0.333010   -0.446169    1.423823
C       0.383933   -1.940015    1.634248
O       1.630486   -2.604158    1.360664
C       1.112867   -2.632876    2.711395
C       1.941056   -1.916903    3.754078
C       0.667072   -4.032185    3.102376
O       1.779185   -4.902763    3.227143
H       1.120479    1.947706    0.152435
H       0.272210    1.670124   -1.373588
H      -0.644847    1.865867    0.125885
H      -0.514095   -0.564422   -0.562478
H       1.238958   -0.486737   -0.527858
H       1.178958    0.037564    1.921766
H      -0.579178   -0.060850    1.900448
H      -0.477947   -2.468169    1.216010
H       2.431961   -1.033858    3.343555
H       1.316170   -1.612015    4.600758
H       2.709382   -2.598180    4.130787
H       0.172692   -4.021004    4.079944
H      -0.052950   -4.408557    2.360832
H       2.238895   -4.871302    2.379551
