16

O       0.577700    0.432776    0.852899
C      -0.143099    0.421840   -0.367166
C      -1.471199   -0.238145   -0.184786
C      -2.696333    0.219653    0.658942
O      -3.480813    0.489162   -0.525516
C      -2.640096   -0.484116   -1.181063
C      -2.784765   -1.823331   -0.413472
C      -2.829900   -1.290271    0.975054
N      -1.511410   -1.676282    0.369862
H       0.621442   -0.483440    1.152837
H      -0.276253    1.464806   -0.674039
H       0.416191   -0.093677   -1.164955
H      -2.742912    0.986041    1.428521
H      -2.636222   -0.432838   -2.267673
H      -3.164433   -2.786123   -0.729386
H      -3.247287   -1.804286    1.830880
