19

C      -0.033183    1.546913   -0.011261
C       1.480823    1.803314    0.014059
C       2.089803    1.291374    1.342782
C       1.730599   -0.206827    1.500287
C       2.213025   -1.001270    0.277699
C       1.333032   -0.310509   -0.772190
O       1.922565    0.963020   -1.062708
C       0.020556    0.014471    0.039104
O       0.308123   -0.365579    1.390657
H      -0.589382    1.947409    0.838161
H      -0.459008    1.922166   -0.946023
H       1.784908    2.826185   -0.216753
H       3.177220    1.420313    1.329422
H       1.689377    1.862252    2.187198
H       2.035950   -0.608883    2.468335
H       3.271540   -0.890068    0.035933
H       1.968000   -2.059901    0.400930
H       1.187893   -0.851330   -1.707874
H      -0.878531   -0.508433   -0.288419
