17

O       0.147525   -0.021915    0.207617
C       0.123872    1.174800    0.365456
C       1.294592    2.056693    0.134501
C       1.048394    3.469965   -0.381568
C       1.527533    3.286401    1.014994
N       0.601483    3.554521    2.078448
C       0.967919    2.911794    3.338717
C       0.035204    3.284893    4.404483
N      -0.687086    3.601706    5.247926
H      -0.796888    1.699854    0.696447
H       2.177436    1.534704   -0.216865
H       1.730938    3.856229   -1.128779
H       0.011245    3.762859   -0.506234
H       2.583736    3.496858    1.206461
H       0.495725    4.554583    2.213472
H       0.931169    1.824030    3.204542
H       1.990372    3.151502    3.681079
