15

O      -0.011472    1.423995    0.106890
C      -0.058432    0.033328    0.012678
C      -1.484472   -0.511365   -0.118336
C      -1.426080   -2.030499   -0.136257
O      -0.585582   -2.570745   -1.178258
C       0.519275   -1.939267   -1.627128
O       1.275127   -2.476788   -2.381542
C       0.725717   -0.468239   -1.183495
O       1.456485    0.257185   -1.809041
H       0.664327    1.714248   -0.525279
H       0.400419   -0.436835    0.905754
H      -2.091676   -0.177342    0.728142
H      -1.947820   -0.125212   -1.033105
H      -1.053158   -2.413082    0.822123
H      -2.409328   -2.469196   -0.314591
