17

O      -0.945302    1.267013   -0.208539
C       0.179445    0.871262    0.000810
C       1.380573    1.754771   -0.009954
C       1.243644    3.072682   -0.251534
C       2.377444    4.047153   -0.261251
C       3.617223    3.502704    0.461269
C       3.915086    2.060305    0.032467
C       2.715397    1.141626    0.228042
O       2.837797   -0.030098    0.524527
H       0.393972   -0.191382    0.215157
H       0.238633    3.440160   -0.453724
H       2.615360    4.282063   -1.311500
H       2.049904    4.997526    0.176311
H       4.482268    4.145031    0.271198
H       3.436255    3.527189    1.542712
H       4.165968    2.035731   -1.038417
H       4.764529    1.631095    0.569179
