17

C      -0.127674    1.478026   -0.072853
N       0.017901    0.029037    0.006271
C       1.385869   -0.510156   -0.192330
C       0.732291   -0.514975    1.121224
C       1.130284    0.010078    2.517295
C      -0.250869   -0.456695    3.048301
C       0.341848   -1.579333    2.159870
O       1.658685   -1.344036    2.805965
H       0.739485    2.029689    0.326009
H      -0.266747    1.768730   -1.118477
H      -1.017526    1.786078    0.485578
H       1.453412   -1.410918   -0.796012
H       2.191640    0.206614   -0.347983
H       1.740683    0.862135    2.815009
H      -0.272147   -0.684520    4.114777
H      -1.146521    0.059917    2.694496
H       0.018184   -2.610510    2.025553
