19

C       0.094872    1.524479   -0.045654
C      -0.111693    0.016673   -0.135649
N       0.698998   -0.547582   -1.209513
C       0.798519   -1.904768   -1.319217
N       0.497990   -2.809248   -0.437711
C       0.871246   -4.001849   -1.061734
C       1.368100   -3.758667   -2.292645
C       1.903473   -4.577313   -3.405781
O       1.325337   -2.379088   -2.474827
H       1.145466    1.765313    0.140341
H      -0.210026    2.024315   -0.972625
H      -0.506883    1.941583    0.766462
H       0.195493   -0.474125    0.791408
H      -1.178333   -0.217374   -0.273526
H       0.657345   -0.065609   -2.095953
H       0.745836   -4.954910   -0.571525
H       1.317216   -4.452717   -4.324179
H       2.941908   -4.316524   -3.642647
H       1.874750   -5.633372   -3.126592
