14

O       0.292465    1.321163   -0.058048
C       0.162594   -0.066242   -0.078610
C      -1.284581   -0.498699   -0.002627
N      -2.205747    0.422230    0.072147
C      -3.490657   -0.051651    0.138344
N      -3.893518   -1.285524    0.135403
C      -2.936172   -2.286733    0.056664
O      -3.144977   -3.472490    0.043304
N      -1.592544   -1.806539   -0.012816
H      -0.610037    1.674355    0.003874
H       0.599015   -0.491255   -0.997948
H       0.701600   -0.526771    0.766193
H      -4.256480    0.719750    0.200741
H      -0.875407   -2.519230   -0.071059
