18

C      -0.121808    1.512837    0.202141
C       0.089541    0.028254   -0.104490
O       1.035536   -0.556043    0.776111
C      -1.250044   -0.702387   -0.154893
C      -1.564522   -2.118847    0.086178
C      -0.759695   -2.803294    1.191662
C      -1.170760   -1.604403    2.053030
O      -0.973272   -1.237324    3.172030
N      -2.064219   -1.022232    1.061254
H       0.839818    2.032551    0.205600
H      -0.769057    1.984909   -0.542895
H      -0.595881    1.636227    1.182423
H       0.529312   -0.072923   -1.105963
H       0.885833   -0.211390    1.663885
H      -1.901718   -0.245250   -0.900199
H      -2.291224   -2.638565   -0.528424
H      -1.245149   -3.718984    1.541750
H       0.305256   -2.971539    1.046724
