17

C       0.107237    1.569207   -0.031953
C       0.055084    0.044709    0.016059
N       0.766237   -0.557080   -1.122026
C       1.275012   -1.880116   -0.752501
C       1.541644   -1.745983    0.731374
O       2.211005   -0.542091    1.108539
C       0.781584   -0.576845    1.207878
C       0.215750   -0.466882    2.528870
N      -0.269453   -0.360668    3.572564
H       1.146719    1.905260   -0.031180
H      -0.373815    1.937369   -0.943076
H      -0.415529    2.004556    0.825407
H      -0.996654   -0.285547    0.095893
H       0.203675   -0.570565   -1.962360
H       0.557487   -2.708454   -0.886796
H       2.178488   -2.121670   -1.324286
H       1.739764   -2.615184    1.351059
