18

C       0.088185    1.470777    0.203065
C       0.020915   -0.041415   -0.037556
C      -1.404391   -0.581518    0.009897
C      -1.680251   -2.120340   -0.087823
C      -2.790627   -1.988345    1.016364
O      -2.944426   -2.942624    2.020594
C      -2.091250   -0.678240    1.379926
O      -1.873375   -0.187150    2.455615
H       1.121644    1.828116    0.166362
H      -0.480582    2.018027   -0.557095
H      -0.325804    1.723340    1.182932
H       0.462936   -0.289730   -1.010361
H       0.621667   -0.561523    0.718708
H      -2.046839   -0.041215   -0.696481
H      -2.000765   -2.510388   -1.053913
H      -0.833795   -2.700996    0.287954
H      -3.758739   -1.803742    0.532338
H      -2.498085   -2.601178    2.805965
