15

O       0.140391    0.179341   -0.456647
C       0.150684    1.320536   -0.139502
O      -0.953121    2.160733    0.052796
C      -0.065792    3.318550    0.098000
C       0.788135    3.273415    1.314413
C       1.160436    2.433239    0.094162
O       2.102993    2.897665   -0.797407
C       1.368861    3.636069   -1.805494
C       0.122785    4.248784   -1.080195
H       1.456931    4.111834    1.477678
H       0.406746    2.790232    2.207263
H       2.048280    4.378047   -2.230947
H       1.050160    2.951283   -2.601919
H      -0.758474    4.259704   -1.724367
H       0.314532    5.272513   -0.749293
