19

C      -0.331270    1.476660    0.117145
N       1.053060    1.005821   -0.097897
C      -0.034934    0.030431   -0.029266
C      -0.090279   -0.946244    1.153276
O      -0.636729   -2.162591    0.652675
C      -1.321954   -1.885342   -0.563448
C      -0.504556   -0.788350   -1.213473
C      -0.684741   -0.261119   -2.578866
N       0.416151   -1.201632   -2.285443
H      -0.519392    1.889931    1.105274
H      -0.844932    1.985648   -0.693775
H       1.331795    1.172511   -1.064456
H       0.907847   -1.149821    1.552835
H      -0.716326   -0.546555    1.964829
H      -1.348075   -2.797501   -1.162800
H      -2.353378   -1.544996   -0.369504
H      -1.467180   -0.654643   -3.222510
H      -0.444205    0.784536   -2.763601
H       1.299074   -0.699110   -2.213233
