19

O       0.171700    1.360973   -0.063358
C       0.100516   -0.030324   -0.091564
C       0.738143   -0.649100   -1.329404
C      -0.077142   -1.965035   -1.513183
C      -0.780567   -2.145946   -0.153323
C       0.302206   -2.232660    0.967401
C       0.325242   -0.734559    1.298174
O      -1.089275   -0.488722    1.600834
C      -1.277072   -0.704579    0.175702
H      -0.311603    1.643639    0.724400
H       0.633356    0.031009   -2.178200
H       1.808103   -0.832262   -1.191041
H      -0.816074   -1.846177   -2.313664
H       0.547351   -2.823725   -1.774963
H      -1.531905   -2.934857   -0.129180
H      -0.023082   -2.805592    1.838403
H       1.255823   -2.633606    0.612499
H       1.014535   -0.346498    2.049552
H      -2.230255   -0.350101   -0.216901
