14

C      -0.019174    1.513068    0.091071
C      -0.009537    0.031526   -0.023048
C      -0.033710   -0.806130   -1.098430
N      -0.008449   -2.133990   -0.664544
C       0.031645   -2.118189    0.695298
N       0.070089   -2.911299    1.751244
N       0.092746   -2.041035    2.799478
N       0.071185   -0.789412    2.440131
N       0.031177   -0.822899    1.080059
H       0.878978    1.877165    0.601403
H      -0.060505    1.966779   -0.901394
H      -0.883611    1.860092    0.667155
H      -0.067261   -0.562494   -2.147193
H      -0.018384   -2.954341   -1.242872
