17

O      -0.038127    1.478298   -0.016699
C      -0.037529    0.071871    0.003191
C      -1.425322   -0.577608   -0.049588
C      -2.130929   -0.593800   -1.360872
C      -1.339825   -1.828026   -0.919799
C       0.050448   -1.909024   -1.443133
O       0.580559   -2.855458   -1.974009
C       0.762136   -0.564138   -1.159505
O       0.653896    0.303085   -2.290087
H      -0.011247    1.740881   -0.945393
H       0.436767   -0.228243    0.944859
H      -2.011224   -0.587581    0.862070
H      -3.208454   -0.714201   -1.347930
H      -1.747896   -0.002528   -2.182731
H      -1.871432   -2.748758   -0.715293
H       1.813905   -0.736761   -0.905692
H       1.141858   -0.092654   -3.019875
