14

C      -0.279131    1.504227   -0.066625
C       0.073202    0.037761   -0.015934
O       1.293916   -0.264032   -0.783433
C       1.964861   -0.711678    0.317100
O       3.082739   -1.098422    0.393386
C       0.753780   -0.528594    1.267814
C       0.923270    0.317825    2.425328
C       1.066524    1.027817    3.384066
H       0.542104    2.118501    0.310528
H      -0.500198    1.801373   -1.095502
H      -1.163553    1.697416    0.548074
H      -0.739459   -0.592301   -0.385836
H       0.352077   -1.506286    1.553397
H       1.201704    1.649839    4.234438
