18

O       0.103322    1.427761   -0.044622
C       0.071067    0.011430   -0.060715
C      -1.356864   -0.533957    0.142229
C      -1.410246   -2.026775    0.105147
C      -1.578488   -2.914377    1.089933
C      -1.540577   -4.303700    0.528911
O      -1.331618   -4.122819   -0.875654
C      -1.253403   -2.783486   -1.154648
N      -1.079451   -2.285156   -2.307189
H      -0.307638    1.737813   -0.857886
H       0.486494   -0.397385   -0.990392
H       0.709880   -0.314657    0.766936
H      -1.749675   -0.155943    1.090807
H      -1.987654   -0.141743   -0.665058
H      -1.729175   -2.705533    2.141145
H      -0.722791   -4.912927    0.936840
H      -2.477473   -4.855900    0.682497
H      -1.005543   -3.018215   -3.013465
