16

C       0.028750   -1.235823   -0.124878
C       0.018243   -0.037894   -0.025824
C      -0.013574    1.404753    0.090926
C      -0.217248    2.059951    1.515475
C       1.099510    2.812259    1.322659
N       2.141615    1.784691    1.160963
C       1.327766    2.181669   -0.021278
C       1.911628    2.699141   -1.206425
C       2.388437    3.125128   -2.226468
H       0.052264   -2.293886   -0.209610
H      -0.733667    1.828473   -0.614499
H      -1.097434    2.703803    1.544435
H      -0.228951    1.364586    2.355788
H       1.345480    3.816516    1.643963
H       3.038447    2.261369    1.067241
H       2.812252    3.500998   -3.124605
