14

N      -0.027705    1.363940   -0.150253
C       0.001220   -0.000621   -0.054366
N      -1.169725   -0.663035   -0.042006
C      -1.085908   -1.989348   -0.002666
N       0.005561   -2.747690    0.033314
C       1.178617   -2.088909    0.037867
N       2.331393   -2.819848    0.129851
C       1.201051   -0.700267   -0.010289
F       2.380843   -0.035296   -0.014216
H       0.796924    1.868201    0.130893
H      -0.914017    1.788203    0.073480
H      -2.033559   -2.523508    0.000496
H       2.234592   -3.798543   -0.089889
H       3.188629   -2.376380   -0.155989
