13

O      -0.155378    1.395803    0.083357
N       0.035738    0.011385    0.189371
C      -1.047521   -0.609358    0.020965
C      -2.499116   -0.327555   -0.260364
O      -2.774400   -1.750206   -0.224231
C      -1.382543   -2.093928    0.049756
C      -0.776544   -2.945412   -0.958240
C      -0.271812   -3.653890   -1.786646
H       0.734544    1.738273    0.222530
H      -3.035562    0.227652    0.518716
H      -2.715084    0.119176   -1.238642
H      -1.285191   -2.550017    1.044363
H       0.174585   -4.278354   -2.520946
