16

C       0.002537    1.528021    0.019052
C       0.003287   -0.002584   -0.001876
C      -1.395475   -0.586479    0.016103
O      -1.351034   -2.011998   -0.058784
C      -1.990864   -2.539729    1.009413
N      -2.124025   -3.775173    1.202463
C      -2.466238   -1.387376    1.860929
O      -3.062804   -1.431071    2.893592
O      -2.079108   -0.253239    1.230099
H       1.026047    1.909739   -0.009704
H      -0.530315    1.937810   -0.845668
H      -0.477947    1.909067    0.923918
H       0.495670   -0.380779   -0.904370
H       0.548534   -0.408298    0.857703
H      -2.004953   -0.217592   -0.817818
H      -2.637356   -3.912135    2.075159
