12

O      -0.019018    0.009528    0.060493
C      -0.007673    1.198371    0.110493
C      -1.066048    2.312438    0.003379
N       0.020537    3.342083   -0.185399
C       0.787012    3.316109    1.045334
C       1.087250    2.248546    0.029379
C       2.324385    2.156514   -0.675537
N       3.327273    2.047649   -1.241100
H      -1.658781    2.200811   -0.907793
H      -1.722468    2.503179    0.856084
H       1.527576    4.105430    1.126131
H       0.305581    3.029913    1.978341
