19

C       0.529443    1.225221   -1.009181
C       0.009299    0.079142   -0.168776
O       0.909168   -1.035260   -0.052281
C       0.664291   -0.248633    1.123979
C       1.755789    0.521222    1.661549
C       2.653241    1.153674    2.151686
C      -1.433867   -0.256061   -0.412444
C      -2.291529   -1.050263    0.534006
C      -2.531878    0.428462    0.369880
H       1.575394    1.435818   -0.782398
H       0.445976    0.973279   -2.071806
H      -0.061297    2.129182   -0.830509
H       0.078240   -0.766259    1.881651
H       3.450277    1.711731    2.577547
H      -1.641990   -0.412071   -1.468545
H      -3.003220   -1.739962    0.094547
H      -1.868861   -1.399880    1.468330
H      -2.231834    1.077204    1.186251
H      -3.416313    0.761189   -0.161595
