19

C      -0.044115   -1.182559   -0.072206
C      -0.022165    0.019417   -0.024722
C       0.007115    1.466948    0.035798
C      -0.107803    2.073954    1.476876
C       1.435739    1.938597    1.592289
C       1.440445    2.102402    0.047196
C       1.302040    3.591374   -0.289934
O       0.583764    4.293969    0.716524
C      -0.462358    3.558954    1.339343
H      -0.068563   -2.242956   -0.119544
H      -0.684367    1.887769   -0.704658
H      -0.755814    1.566071    2.193348
H       1.968097    2.686167    2.183672
H       1.731893    0.932875    1.892992
H       2.215984    1.620678   -0.550863
H       2.285783    4.071129   -0.339049
H       0.819441    3.710801   -1.274513
H      -1.407735    3.669878    0.782101
H      -0.598842    4.018126    2.324666
