20

C      -0.151025    1.630497    0.205369
C      -0.098087    0.123128    0.109580
C       1.105249   -0.595449   -0.394804
C       0.742625   -0.737712    1.074453
C       1.611433   -0.095782    2.090499
O       2.375112    0.823144    1.836428
C       1.520697   -0.627135    3.489313
C       2.823288   -0.963830    4.153253
N       2.069486    0.211654    4.562875
H       0.818330    2.044810    0.487427
H      -0.439191    2.055368   -0.762427
H      -0.891286    1.954391    0.944733
H      -1.051857   -0.343116   -0.124491
H       0.983252   -1.469784   -1.024171
H       1.992932   -0.001557   -0.585339
H       0.278293   -1.665825    1.390425
H       0.634719   -1.200467    3.745217
H       2.849075   -1.780020    4.869576
H       3.723025   -0.825877    3.560040
H       2.476614    1.028854    4.104650
