18

C       0.105568    1.339555   -0.159844
O      -0.167072   -0.020341    0.147775
C       0.577697   -0.503728    1.188101
C       2.056955   -0.882235    1.140964
C       2.770957   -0.454200    2.406356
C       1.609104   -0.601131    3.366184
C       0.313263   -0.311051    2.700608
N       0.705653   -1.732256    2.975720
C       0.989099   -1.904031    1.497149
H       1.155946    1.479748   -0.448542
H      -0.540334    1.610910   -0.997240
H      -0.116072    1.998476    0.691081
H       2.539348   -0.953385    0.174282
H       3.605386   -1.114163    2.666594
H       3.139486    0.576756    2.365898
H       1.732910   -0.472639    4.436150
H      -0.564018    0.134416    3.155734
H       0.822084   -2.855899    1.012643
