18

C      -0.093197    1.578144    0.038420
C       0.030550    0.074245   -0.038679
O      -1.109205   -0.607775    0.419048
C       0.677343   -0.665072   -1.166395
C       1.620366    0.086386   -2.104700
N       2.677576    0.550141   -1.221984
C       2.632420    0.074765    0.069639
O       3.487351    0.239700    0.912815
C       1.337513   -0.680191    0.206175
H       0.792032    2.087782   -0.345594
H      -0.967432    1.907576   -0.532070
H      -0.230222    1.894625    1.079248
H      -1.217213   -0.405890    1.355555
H       0.152992   -1.532762   -1.545988
H       2.008779   -0.590201   -2.877407
H       1.123157    0.922103   -2.614094
H       3.481000    1.065931   -1.542398
H       1.314666   -1.532281    0.872316
