23

C       0.280533    1.157594   -0.088406
O      -0.049415   -0.207238   -0.210144
C      -1.428464   -0.589676   -0.019903
C      -1.981504   -0.068935    1.303314
C      -2.270396   -0.231893   -1.268483
C      -2.216820   -1.470806   -2.213458
C      -1.216903   -2.445364   -1.564016
C      -1.345296   -2.139510   -0.064031
O      -0.332553   -2.661283    0.762144
H       1.322279    1.257222   -0.404794
H      -0.337944    1.797922   -0.733392
H       0.193820    1.520755    0.944225
H      -2.046454    1.022916    1.328243
H      -2.990175   -0.461423    1.462787
H      -1.350150   -0.404934    2.131260
H      -3.300134    0.001424   -0.982137
H      -1.872629    0.665688   -1.749290
H      -3.207325   -1.932970   -2.277211
H      -1.932000   -1.202049   -3.233490
H      -1.417377   -3.494120   -1.795949
H      -0.192769   -2.219399   -1.878320
H      -2.292723   -2.546348    0.311903
H       0.430668   -2.086722    0.615023
