20

C       0.031778    1.457221   -0.167821
N      -0.145603    0.022168   -0.273378
C      -1.146341   -0.645504    0.371713
O      -1.978048   -0.086542    1.065445
C      -1.136776   -2.161778    0.180186
C      -2.555142   -2.726735    0.059812
C      -2.572194   -4.267540    0.063203
C      -3.914571   -4.819755   -0.072707
C      -5.030415   -5.251310   -0.188027
H       0.998860    1.709900    0.281618
H      -0.035187    1.940756   -1.148761
H      -0.767545    1.834418    0.470946
H       0.503190   -0.505730   -0.832290
H      -0.527448   -2.446436   -0.686532
H      -0.644294   -2.591710    1.063253
H      -3.155332   -2.342462    0.887941
H      -3.024932   -2.363025   -0.860471
H      -1.939948   -4.647908   -0.750709
H      -2.118642   -4.635216    0.993576
H      -6.013238   -5.640218   -0.286884
