18

C      -0.072553    1.562264    0.004732
C       0.015279    0.025926    0.013512
C       0.737117   -0.511726    1.226148
C       2.099423   -0.816556    1.184527
N       2.797650   -1.262118    2.231821
C       2.159753   -1.429813    3.386031
C       0.795705   -1.162733    3.542609
O       0.242151   -1.378408    4.766677
C       0.080760   -0.697377    2.443547
H       0.925883    2.010092    0.011680
H      -0.600131    1.917584   -0.885858
H      -0.607266    1.931638    0.885791
H      -0.996218   -0.395131   -0.028351
H       0.531453   -0.311920   -0.891843
H       2.651270   -0.697265    0.254407
H       2.731394   -1.794700    4.235289
H      -0.694996   -1.158568    4.735974
H      -0.983038   -0.484077    2.532669
