19

C      -0.099194    1.560668   -0.140674
C       0.051203    0.055390    0.025757
C       1.145653   -0.733083   -0.754454
N       1.703962   -1.350924    0.507206
C       2.169154   -0.220957    1.320398
C       0.711413   -0.495686    1.290154
C      -0.047619   -1.011877    2.470600
N       0.477781   -2.150804    3.011507
O      -1.030036   -0.433814    2.898107
H       0.855365    2.083813   -0.022712
H      -0.492263    1.806598   -1.133035
H      -0.794556    1.952427    0.607842
H      -0.922300   -0.423265   -0.109154
H       0.759020   -1.510132   -1.415578
H       1.885590   -0.134672   -1.296892
H       2.709100   -0.525042    2.211326
H       2.564273    0.663045    0.824915
H       1.099664   -2.704629    2.441654
H      -0.054168   -2.609920    3.733501
