21

C       0.136852    1.608301    0.168767
C       0.124694    0.080412    0.056957
C       0.682591   -0.441671   -1.279603
C       0.776072   -1.985528   -1.290543
C       1.575762   -2.543762   -2.481673
C       1.497755   -4.051983   -2.544696
O       2.443436   -4.795805   -2.524000
C      -0.213328   -0.011983   -2.426137
O       0.155547    0.477582   -3.462033
H       1.154253    2.001735    0.072672
H      -0.470553    2.077407   -0.612809
H      -0.258552    1.933296    1.135445
H       0.713905   -0.354845    0.872333
H      -0.899324   -0.295389    0.188892
H       1.677046   -0.018777   -1.463615
H       1.242770   -2.312064   -0.354232
H      -0.238027   -2.410389   -1.290128
H       1.161955   -2.148480   -3.419934
H       2.627316   -2.248401   -2.428035
H       0.457254   -4.452020   -2.608498
H      -1.296914   -0.222023   -2.245714
