13

O      -0.084904    0.038922    0.003302
C      -0.044803    1.237455    0.008771
C       1.329282    1.946624   -0.002158
O       2.372434    1.349854   -0.016667
N       1.288021    3.352051    0.006166
C       2.376072    4.190344   -0.000943
C       1.884932    5.464667    0.011809
C       0.468781    5.309787    0.026435
N       0.106459    4.043417    0.023137
H      -0.935695    1.884114    0.021021
H       3.373307    3.784269   -0.014215
H       2.449529    6.382699    0.010890
H      -0.287279    6.081839    0.039174
