18

O      -0.645893    0.595694    0.549409
C       0.186155    0.902299   -0.264546
C       1.274707    1.936850   -0.047891
C       1.259128    2.993756   -1.123330
C       1.900546    2.803179   -2.474810
C       2.366566    3.938953   -1.605623
C       1.370798    5.101029   -1.686075
C       0.235016    4.139510   -1.204274
H       0.203667    0.431638   -1.274987
H       1.148840    2.366004    0.951568
H       2.238361    1.407596   -0.073794
H       2.587615    1.965596   -2.550391
H       1.342568    3.001822   -3.387768
H       3.394016    4.007458   -1.267208
H       1.572974    5.894517   -0.963679
H       1.247819    5.554169   -2.675178
H      -0.609753    3.984667   -1.883421
H      -0.157227    4.423011   -0.224500
