21

C       0.257456    1.721864   -0.311004
C      -0.012293    0.326023    0.255208
C       0.288226   -0.783863   -0.773165
C       0.817593    0.080610    1.505394
O       1.828805    0.663990    1.802917
O       0.283230   -0.925812    2.243664
C       0.998330   -1.312267    3.438706
C       0.404381   -0.591971    4.639783
O      -0.964987   -0.897235    4.821551
H       1.314427    1.835848   -0.564975
H      -0.338489    1.885222   -1.213801
H       0.005965    2.502427    0.412367
H      -1.065074    0.236094    0.546790
H       1.339101   -0.752746   -1.079305
H       0.077949   -1.773642   -0.360400
H      -0.327834   -0.644360   -1.666226
H       0.847203   -2.390923    3.526362
H       2.058809   -1.080307    3.321059
H       0.925025   -0.917950    5.546660
H       0.571218    0.490384    4.529433
H      -1.403241   -0.713366    3.983414
