18

C       0.073655    1.482569   -0.295963
N       0.001547    0.091359    0.127409
C      -1.271164   -0.521296    0.536729
C      -0.794529   -1.976272    0.696381
C       0.460379   -1.904272    1.146956
C       0.779496   -0.403637    1.273024
C      -0.075728    0.015535    2.514043
O      -0.860501    1.206567    2.350171
C      -1.445258   -0.063022    2.022308
H       1.107115    1.690384   -0.596763
H      -0.547692    1.594963   -1.192077
H      -0.235118    2.227504    0.443023
H      -2.102205   -0.332078   -0.142351
H      -1.401102   -2.853458    0.519791
H       1.126195   -2.708456    1.427218
H       1.827983   -0.106586    1.268791
H       0.220801   -0.235148    3.528685
H      -2.290674   -0.379198    2.626933
