15

O      -0.163952    0.064332   -0.083598
C      -0.082600    1.253968   -0.081928
O       1.094054    1.890623    0.140915
C       1.099462    3.307839    0.019537
C       2.369998    3.912137    0.630204
C       2.868407    4.849108   -0.443127
C       2.184308    4.762858   -1.592338
C       1.119949    3.750417   -1.467446
O       0.385760    3.302657   -2.314835
H      -0.927838    1.947401   -0.233246
H       0.198364    3.730373    0.483297
H       2.192094    4.429614    1.578306
H       3.100626    3.120619    0.832455
H       3.713327    5.507104   -0.270725
H       2.374752    5.305822   -2.508594
