19

C       0.114797    1.290181   -0.376115
O       0.031896   -0.036359    0.110820
C      -1.276348   -0.597560    0.101101
C      -1.818331   -0.721523   -1.256046
C      -2.268901   -0.817474   -2.365974
C      -1.137320   -1.966350    0.798008
O      -0.096444   -2.725346    0.198495
C      -0.868737   -1.829759    2.302688
O      -0.630418   -3.099510    2.869230
H       1.161741    1.589976   -0.296908
H      -0.205559    1.355866   -1.423174
H      -0.500806    1.973367    0.227043
H      -1.954797    0.036308    0.696813
H      -2.668325   -0.913666   -3.345653
H      -2.059086   -2.537523    0.650046
H       0.623121   -2.101585    0.030677
H      -0.019640   -1.145141    2.457059
H      -1.742872   -1.402704    2.808023
H      -0.047178   -3.548553    2.242845
