19

O      -0.224470    0.605445    1.344990
C       0.547374    0.701059    0.426950
C       1.179910    2.009970   -0.057405
C       1.386048    3.031058    1.086057
C       2.851768    3.015866    1.540686
C       3.752269    3.354716    0.317436
C       3.572842    1.865584   -0.072073
C       3.408619    1.563701    1.442826
O       2.357051    1.691488   -0.797186
H       0.858982   -0.175375   -0.184042
H       0.464415    2.407542   -0.791880
H       1.113315    4.038407    0.755609
H       0.707416    2.754243    1.899064
H       2.993639    3.572917    2.468809
H       3.395862    4.097877   -0.400679
H       4.781654    3.578446    0.609391
H       4.342683    1.353952   -0.651812
H       4.384195    1.468562    1.925617
H       2.776860    0.726258    1.750514
