13

C      -0.031867    1.543253    0.051269
C      -0.009177    0.046866    0.012658
C      -0.024464   -0.780130   -1.081233
N      -0.118873   -0.529851   -2.431746
O      -0.003945   -2.066521   -0.713574
N       0.022257   -2.138078    0.697463
C       0.021666   -0.885711    1.082050
H       0.945680    1.988016   -0.176363
H      -0.752969    1.954269   -0.664555
H      -0.322432    1.900178    1.043155
H       0.307951    0.335407   -2.728342
H       0.153913   -1.311297   -3.011448
H       0.037520   -0.672068    2.143244
