23

C      -0.127718    1.526688   -0.083068
C       0.013909    0.003029   -0.001822
C       0.742311   -0.507529    1.251261
C       0.021325   -0.127690    2.558578
C       0.552245   -0.873322    3.755851
C       1.366477   -1.924565    3.671186
C       1.814021   -2.527917    2.363603
O       1.844311   -3.953655    2.435389
C       0.948283   -2.029388    1.200623
H       0.850359    2.018006   -0.026628
H      -0.594621    1.825957   -1.026585
H      -0.745627    1.924718    0.727812
H      -0.981017   -0.461445   -0.050211
H       0.556605   -0.353242   -0.886683
H       1.737666   -0.037669    1.275827
H       0.101880    0.950735    2.741836
H      -1.058506   -0.323395    2.456979
H       0.247495   -0.506385    4.733928
H       1.741665   -2.415606    4.566080
H       2.862198   -2.256176    2.175910
H       0.955741   -4.244703    2.669813
H      -0.030720   -2.528246    1.258957
H       1.401407   -2.333608    0.251085
