23

C       0.066282    1.226959   -0.524847
C       0.141974   -0.261750   -0.151146
C       0.874420   -1.049457   -1.247656
O       0.506803   -2.414315   -1.279639
C       1.207924   -3.257978   -0.396658
C       1.010485   -3.031726    1.082410
C       0.782945   -1.902663    1.754232
C       0.697937   -0.469479    1.277968
C       2.068501    0.204969    1.523391
H       1.056897    1.655149   -0.711309
H      -0.526182    1.365445   -1.434833
H      -0.403633    1.813512    0.271489
H      -0.879964   -0.661356   -0.150238
H       0.588582   -0.646697   -2.226013
H       1.968403   -0.943969   -1.160540
H       0.875161   -4.271795   -0.645614
H       2.292001   -3.223828   -0.620295
H       1.113234   -3.944532    1.668471
H       0.718325   -1.995078    2.838301
H      -0.013688    0.035778    1.946714
H       2.840077   -0.203507    0.863224
H       2.020739    1.286541    1.369104
H       2.398134    0.031349    2.552384
