15

C       0.004654    1.492670    0.034418
C      -0.015702   -0.009861   -0.016537
C      -0.103802   -0.698996   -1.224264
C      -0.103755   -2.084696   -1.116461
F      -0.173301   -2.812545   -2.223570
N      -0.036080   -2.752111    0.007423
C       0.035644   -1.985433    1.114776
N       0.063077   -2.645642    2.304066
N       0.056633   -0.647405    1.158243
H       0.913674    1.838050    0.536534
H      -0.040239    1.933955   -0.963407
H      -0.842524    1.858403    0.623162
H      -0.160552   -0.204964   -2.183680
H       0.257866   -3.631739    2.285778
H       0.317947   -2.115850    3.119543
