16

N       0.010532   -1.000164    0.624083
C       0.035395    0.120268    0.347597
C       0.021824    1.541940   -0.009271
O       1.327253    2.053782    0.069821
C       1.388768    3.432997   -0.268513
C       2.824632    3.871642   -0.234899
C       3.146199    5.260774    0.180662
N       3.495015    4.125740    1.045990
H      -0.394957    1.644771   -1.025094
H      -0.664927    2.067336    0.675450
H       0.961554    3.593459   -1.272734
H       0.790005    4.026005    0.444515
H       3.459044    3.381009   -0.969313
H       3.990864    5.775974   -0.266661
H       2.323098    5.910664    0.468955
H       2.830011    4.042329    1.811583
