19

C       0.062298    1.415977    0.052648
N       0.028977   -0.038151    0.076363
C      -1.224516   -0.638953    0.036033
C      -2.500716   -0.099207    0.063337
C      -3.352348   -1.232166    0.062219
N      -4.746863   -1.232078    0.157675
N      -2.678157   -2.373014    0.022687
N      -1.359154   -1.988942    0.035959
C      -0.317772   -2.982007   -0.000983
H       1.102400    1.748073    0.091412
H      -0.415031    1.853503   -0.837864
H      -0.451108    1.804436    0.937173
H       0.686636   -0.450386   -0.572063
H      -2.775391    0.941472    0.095298
H      -5.181192   -0.517863   -0.411906
H      -5.125539   -2.141689   -0.075996
H       0.018582   -3.201942   -1.023773
H       0.538048   -2.640204    0.588845
H      -0.712206   -3.899753    0.436810
