12

O      -0.008149    0.025429   -0.627637
C       0.006860    1.176233   -0.251408
C      -1.193186    1.998934   -0.219012
C      -1.394520    3.273788    0.155410
O      -0.604242    4.257521    0.628912
N       0.754302    4.220652    0.882461
C       1.486666    3.187888    0.690511
C       1.343796    1.778480    0.205191
O       2.344950    1.103848    0.181821
H      -2.081917    1.478976   -0.561363
H      -2.394974    3.692026    0.095710
H       2.522248    3.393428    0.959612
