17

O       0.017408    1.471212    0.206112
C      -0.006392    0.052791    0.277230
C      -1.347757   -0.532016   -0.178234
C      -1.398248   -2.039517   -0.085481
O      -0.447272   -2.594308   -0.964181
C      -1.672484   -2.707909    1.236154
C      -2.711345   -2.743907    0.123301
H      -0.036782    1.717377   -0.722709
H       0.809417   -0.397881   -0.303591
H       0.168519   -0.194043    1.329898
H      -2.151183   -0.098217    0.425692
H      -1.534121   -0.240837   -1.221308
H      -0.365055   -3.534908   -0.781198
H      -1.144046   -3.630051    1.460893
H      -1.866486   -2.091502    2.107810
H      -3.615203   -2.154722    0.237587
H      -2.857895   -3.687300   -0.393539
