18

N       0.146475    1.366317   -0.067077
C       0.056571   -0.095871   -0.031461
C       0.684639   -0.641166    1.293691
C      -0.058963   -1.949679    1.627766
C      -1.431346   -1.764652    1.004928
N      -2.018774   -0.430865    1.280873
C      -1.362287   -0.695323   -0.013413
C       0.765179   -0.640909   -1.202172
N       1.290976   -1.090411   -2.127881
H      -0.202132    1.717626   -0.955025
H      -0.476600    1.720699    0.655485
H       1.764276   -0.764751    1.203194
H       0.497970    0.109533    2.063343
H       0.428228   -2.812097    1.159221
H      -0.100559   -2.134618    2.705258
H      -2.099146   -2.612333    0.892172
H      -3.027091   -0.472839    1.158244
H      -1.945277   -0.704627   -0.928429
