18

O      -0.086109    1.456533    0.016381
C       0.010837    0.043044   -0.051054
C      -1.366665   -0.571427   -0.155417
C      -1.962932   -0.838920   -1.490553
C      -0.921816   -0.900963   -2.624320
C       0.179912    0.177557   -2.585113
C       0.722048   -0.515669   -1.299871
C      -0.121796   -1.795387   -1.650151
N      -1.298149   -1.945875   -0.685629
H       0.795964    1.809733    0.168992
H       0.492282   -0.346935    0.859565
H      -2.049794   -0.442721    0.678694
H      -3.038912   -0.822837   -1.634348
H      -1.313860   -1.263784   -3.574036
H       0.868722    0.069850   -3.427429
H      -0.117083    1.223112   -2.482194
H       1.803084   -0.607763   -1.183349
H       0.369459   -2.728781   -1.915364
