20

C       1.091016    0.105304    0.185051
C       0.043113   -0.937569   -0.128006
O      -0.191592   -1.872293    0.607240
C      -0.746239   -0.754013   -1.428833
N      -1.544486   -1.906256   -1.810612
C      -0.859601   -2.872596   -2.680808
C       0.485683   -3.356577   -2.114596
C       0.477745   -4.616730   -1.276755
O       1.490221   -2.698676   -2.292149
H       1.965820   -0.094298   -0.445627
H       0.739496    1.113382   -0.057162
H       1.385980    0.047051    1.233555
H      -1.400988    0.118222   -1.269028
H      -0.058976   -0.481093   -2.235322
H      -1.841150   -2.370264   -0.955746
H      -1.542774   -3.711210   -2.848760
H      -0.657169   -2.392057   -3.643800
H       1.484757   -4.841000   -0.923426
H      -0.185407   -4.473016   -0.416620
H       0.086237   -5.460512   -1.856387
