15

O      -0.943699    1.085138    0.276333
C       0.200412    0.837591    0.003986
C       1.304516    1.882932    0.044376
C       1.486007    2.489795    1.437729
C       2.707818    3.412109    1.405793
N       3.866638    2.804181    0.755260
C       3.674565    1.824980   -0.016848
O       2.504723    1.241220   -0.399539
H       0.545541   -0.177980   -0.288975
H       1.045885    2.675927   -0.672206
H       0.570681    3.014511    1.722553
H       1.647249    1.682533    2.161465
H       2.470829    4.350854    0.887686
H       3.001381    3.690914    2.423223
H       4.507272    1.311559   -0.493283
