19

C      -0.023251   -1.170987   -0.123457
C      -0.015062    0.031159   -0.057410
C      -0.019441    1.460174    0.034249
C       0.430702    2.266353   -1.174504
C       1.280568    2.280149    0.063329
C       1.125562    3.381473    1.089936
C       0.132718    4.495826    0.858990
C      -0.271052    3.295649    1.677039
C      -1.004649    2.122184    1.021411
H      -0.026702   -2.230605   -0.185009
H       0.795939    1.692965   -2.019009
H      -0.141094    3.144168   -1.452117
H       2.234596    1.768326    0.024717
H       1.985705    3.583916    1.717292
H       0.300274    5.421402    1.400197
H      -0.290888    4.646797   -0.127534
H      -0.436894    3.449170    2.737803
H      -1.934450    2.423236    0.525716
H      -1.274405    1.388908    1.786156
