18

C      -0.273040    1.538666    0.122383
C       0.057048    0.060843    0.032072
C       1.161713   -0.459767   -0.968864
N       1.949805    0.379579   -1.837251
C       1.874944   -1.019521    0.266926
C       2.101766    0.030540    1.291204
N       0.763852   -0.559818    1.219001
C       2.479696   -2.315163    0.338905
N       2.972595   -3.361668    0.363736
H       0.610824    2.178219    0.203528
H      -0.823521    1.853293   -0.770252
H      -0.906318    1.730999    0.994054
H      -0.867703   -0.505621   -0.103695
H       0.757474   -1.275212   -1.572173
H       1.434516    0.630173   -2.673747
H       2.237022    1.240371   -1.385911
H       2.646259   -0.269275    2.180611
H       2.276006    1.058115    0.985282
