14

O       0.155522    0.117448    0.449121
C       0.092236    1.224639   -0.001564
N      -0.963772    2.106291    0.032596
C      -0.702258    3.313692   -0.679363
C       0.528010    4.206048   -0.328012
N       1.374156    3.852962    0.783568
C       1.731297    2.647730    0.589057
N       1.227460    1.985851   -0.607524
C       0.609952    3.104106   -1.355957
H      -1.820084    1.886182    0.512460
H      -1.538771    3.785210   -1.179059
H       0.460227    5.254190   -0.589304
H       2.315030    2.056293    1.284877
H       0.816617    3.185807   -2.415870
