12

N       0.063617    1.388742    0.159181
C       0.013146    0.006835    0.041114
C      -1.062965   -0.828882    0.014841
O      -0.647437   -2.139884   -0.027129
C       0.688207   -2.143231   -0.031036
C       1.171138   -0.862482    0.008756
C       2.520169   -0.442075    0.004966
N       3.610046   -0.048241   -0.006305
H       0.912974    1.799580   -0.203794
H      -0.751841    1.872315   -0.188281
H      -2.127042   -0.672131    0.028709
H       1.178433   -3.101729   -0.067666
