15

C       0.099694    1.412869   -0.374404
C       1.240971    2.158540    0.261538
C       2.155923    1.603212    1.052172
C       2.185494    0.146896    1.427980
C       0.947119   -0.613879    1.011672
O      -0.296059   -0.144457    1.542410
C      -0.064148   -0.000092    0.137807
H      -0.841092    1.960971   -0.223497
H       0.241263    1.373416   -1.464850
H       1.301612    3.220653    0.037735
H       2.951659    2.219160    1.463585
H       3.061551   -0.338357    0.972211
H       2.325578    0.038968    2.512873
H       1.043699   -1.700458    1.010661
H      -0.681672   -0.653246   -0.480285
