18

O       0.209501    1.314775   -0.263511
C       0.024950   -0.049941   -0.053603
C      -0.397681   -0.629112    1.267093
C      -1.348878   -0.675922    0.079569
C      -2.606360    0.155686    0.044284
C      -3.439596    0.168087   -1.231721
C      -3.958145   -0.550290   -0.024218
C      -2.572807    1.379605    0.804134
N      -2.511407    2.348564    1.435859
H      -0.189882    1.814925    0.456606
H       0.752240   -0.609207   -0.634150
H       0.053266   -1.551860    1.615650
H      -0.641034    0.072040    2.060453
H      -1.486158   -1.642557   -0.397480
H      -3.909403    1.100871   -1.519012
H      -3.045294   -0.414799   -2.056303
H      -3.929368   -1.633864   -0.006946
H      -4.784022   -0.110058    0.521692
