18

C       0.004787    1.354191   -0.033139
C      -0.030120   -0.101820   -0.433553
O       0.925505   -0.700979   -0.861442
C      -1.372580   -0.809339   -0.262604
N      -2.361788   -0.176948    0.219750
O      -1.298156   -2.093407   -0.679487
C      -2.477239   -2.857411   -0.618940
C      -2.279599   -4.329021   -0.477052
C      -2.840194   -3.528078    0.679977
H       1.009777    1.744017   -0.197216
H      -0.726672    1.924530   -0.612979
H      -0.284259    1.466648    1.015622
H      -3.192706   -0.762709    0.306231
H      -3.268110   -2.484779   -1.265609
H      -2.940194   -4.988010   -1.028039
H      -1.254435   -4.670185   -0.394325
H      -2.182148   -3.349372    1.522403
H      -3.889553   -3.631455    0.932900
