17

O      -0.124027    1.352507   -0.038335
C      -0.079942   -0.054339   -0.021358
C       0.364048   -0.660321    1.324290
O      -0.548481    0.039989    2.232282
C      -1.549722   -0.828709    1.647214
C      -0.536842   -1.953849    1.361097
C      -1.167458   -2.192515   -0.028492
C      -1.493990   -0.687669    0.044928
O      -2.470920   -0.096657   -0.728482
H      -0.360704    1.600474    0.869773
H       0.495064   -0.386299   -0.889025
H       1.406917   -0.617486    1.634821
H      -2.496967   -0.894168    2.178763
H      -0.286133   -2.740596    2.067482
H      -0.546494   -2.536461   -0.860152
H      -2.054829   -2.825041    0.059138
H      -2.183421    0.818748   -0.862814
