15

N       0.140544    1.316737   -0.178863
C       0.003083    0.077361    0.020612
N      -1.219988   -0.616141   -0.038288
C      -1.166905   -2.022652   -0.009114
C      -2.219880   -2.765970   -0.323266
C      -3.465586   -2.059428   -0.746509
O      -3.554115   -0.752353   -0.154523
C      -2.475627    0.045522    0.017610
O      -2.612192    1.204990    0.263138
H       1.122265    1.571053   -0.079153
H       0.818397   -0.623082    0.239716
H      -0.210519   -2.433540    0.292761
H      -2.186438   -3.846003   -0.280166
H      -3.523184   -1.952015   -1.840289
H      -4.368656   -2.581086   -0.419290
