21

C      -0.046271    1.541053    0.002708
C      -0.003390    0.008418   -0.000805
O      -1.325296   -0.518479   -0.040195
C       0.895425   -0.500942   -1.172047
C       2.229557   -0.754004   -0.513064
C       2.119048   -0.772946    0.815973
C       0.721571   -0.529243    1.254902
C       0.364413   -0.092896    2.655355
C       0.046839   -1.493838    2.210765
H       0.963637    1.955424    0.074072
H      -0.495438    1.914281   -0.926472
H      -0.635158    1.914080    0.844499
H      -1.818239   -0.031207   -0.707991
H       0.469920   -1.428209   -1.578283
H       0.946501    0.218886   -1.998068
H       3.141084   -0.933873   -1.071235
H       2.921305   -0.971331    1.518759
H       1.173636    0.062566    3.361876
H      -0.467927    0.592728    2.775364
H      -0.988485   -1.735124    2.004542
H       0.642996   -2.311806    2.601370
