17

O      -0.052275    1.352423    0.161544
C      -0.020095   -0.023817   -0.001567
C      -0.630991   -0.889851    1.085314
C      -1.338570   -0.769457   -0.229958
C      -2.607591    0.060050   -0.361878
C      -3.799523   -0.683817    0.032022
C      -4.769418   -1.315696    0.354922
C       1.165811   -0.506588   -0.733737
O       1.994806    0.259329   -1.174471
H       0.714922    1.677375   -0.337273
H      -0.148768   -1.826074    1.345761
H      -1.028518   -0.328689    1.924066
H      -1.296264   -1.636581   -0.883329
H      -2.508608    0.968933    0.240694
H      -2.711931    0.399233   -1.400272
H      -5.634031   -1.860976    0.641843
H       1.245944   -1.604542   -0.867517
