19

C      -0.100211    1.559210    0.013908
C       0.062509    0.056838    0.052350
C       1.361960   -0.701482   -0.224672
C       2.631416    0.068002   -0.088749
C       2.828949    0.507502    1.163550
C       1.714234    0.049707    2.036081
O       1.588222    0.231433    3.226603
C       0.750005   -0.738379    1.157050
C       0.074267   -1.933214    1.784385
H       0.803439    2.087103    0.324519
H      -0.353515    1.890248   -0.999152
H      -0.913515    1.869635    0.678250
H      -0.810078   -0.470131   -0.331682
H       1.324310   -1.552821   -0.895825
H       3.279172    0.271674   -0.934722
H       3.640981    1.124193    1.525859
H      -0.477101   -1.624831    2.677891
H      -0.626621   -2.405462    1.089559
H       0.806624   -2.686672    2.093361
