23

C      -0.091294    1.612236   -0.081441
C      -0.034529    0.081760    0.006122
C      -1.446988   -0.428771   -0.312047
C       1.140618   -0.667798   -0.731415
C       2.397273    0.065466   -0.216905
C       2.026127    0.143949    1.311518
C       0.660405   -0.573404    1.263680
C       1.057863   -1.781736    0.368794
O       0.085636   -2.798363    0.271190
H       0.856256    2.116026    0.111066
H      -0.428455    1.918560   -1.078667
H      -0.822061    2.002145    0.636832
H      -1.743364   -0.101145   -1.316266
H      -1.533029   -1.510128   -0.260069
H      -2.166953    0.007415    0.391034
H       1.092840   -0.903843   -1.797421
H       3.307205   -0.516237   -0.392117
H       2.541480    1.045705   -0.675701
H       2.743536   -0.390279    1.940838
H       1.959036    1.167598    1.684869
H       0.127980   -0.719869    2.204869
H       2.028755   -2.234081    0.620782
H       0.331806   -3.369014   -0.463933
