23

C       0.035176    1.612202    0.248545
C       0.021613    0.098459    0.009136
C      -1.401028   -0.485709   -0.058053
C      -2.086297   -0.042792   -1.337026
O      -3.222722    0.349940   -1.419101
C      -1.435517   -2.050344    0.098311
C      -2.885162   -2.544336    0.186822
C      -0.685216   -2.773843   -1.023570
O      -0.738544   -2.406187    1.295176
H       1.060016    1.993530    0.286372
H      -0.491615    2.155085   -0.544200
H      -0.451291    1.866975    1.196499
H       0.553826   -0.125599   -0.924285
H       0.562528   -0.418113    0.806511
H      -2.002479   -0.081324    0.767045
H      -1.442000   -0.106349   -2.246341
H      -3.449028   -2.326539   -0.723722
H      -2.895070   -3.624446    0.357618
H      -3.411425   -2.058487    1.016911
H       0.361741   -2.464648   -1.061535
H      -0.710135   -3.850931   -0.838263
H      -1.143221   -2.582505   -1.998284
H      -1.264485   -2.106072    2.044909
