18

C      -0.266699    1.683423   -0.655130
N      -0.838360    0.363886   -0.333535
C       0.030073   -0.799790   -0.213194
C      -0.622148   -0.205551    0.988082
C       1.116472    2.008062   -0.158012
C       1.447961    2.676024    0.982919
O       2.795340    2.789815    1.112291
C       3.345816    2.179916    0.029256
C       2.375733    1.685422   -0.780259
H      -0.284740    1.769669   -1.747478
H      -0.973847    2.425488   -0.268564
H      -0.352432   -1.714136   -0.659084
H       1.105908   -0.663919   -0.296238
H       0.030361    0.322451    1.681091
H      -1.490302   -0.676372    1.441642
H       0.861979    3.132124    1.764586
H       4.422296    2.190374   -0.015731
H       2.520899    1.164813   -1.714589
