19

O       0.086923    1.393928    0.322634
C      -0.008397    0.018069    0.139222
C      -0.578938   -0.901166    1.191121
C      -1.321504   -0.680616   -0.118822
C      -2.627674    0.081515   -0.149922
C      -3.866186   -0.736041    0.260314
O      -4.704900    0.230442    0.879093
C      -3.827925    1.064163    1.579253
O      -2.638746    1.163979    0.802850
H      -0.752403    1.697726    0.693863
H       0.853651   -0.338030   -0.416298
H      -0.112724   -1.862745    1.377285
H      -0.992686   -0.419378    2.070918
H      -1.302661   -1.493633   -0.841591
H      -2.777752    0.517264   -1.147032
H      -4.405570   -1.170502   -0.582903
H      -3.587537   -1.530530    0.968626
H      -4.284247    2.052990    1.686771
H      -3.580507    0.646529    2.570657
