15

O      -0.036804   -0.043536   -0.117238
C      -0.050319    1.155365    0.027935
C      -1.282067    1.956135    0.114516
C      -1.248084    3.283705    0.276586
C       0.026388    4.040320    0.488456
N       1.098957    3.148963    0.908985
C       1.257519    1.992296    0.027787
C       2.406309    1.190589    0.451917
N       3.343324    0.602934    0.782147
H      -2.209644    1.407677   -0.011087
H      -2.164774    3.866642    0.255188
H       0.252287    4.601300   -0.442418
H      -0.121317    4.795181    1.269459
H       1.975768    3.650725    0.989947
H       1.429163    2.268202   -1.033808
