27

C      -0.180516    1.311862    0.184219
C       0.319942   -0.093236   -0.187386
C       1.327297   -0.014777   -1.344413
C       0.921969   -0.782098    1.028220
C       0.046212   -1.286650    2.150080
C       0.842542   -2.268839    1.324690
C       0.148659   -3.304807    0.452916
C       1.119622   -3.923662   -0.563902
C      -0.486842   -4.400891    1.323310
H       0.647879    1.941245    0.531232
H      -0.635781    1.809883   -0.678565
H      -0.924068    1.270522    0.985705
H      -0.547415   -0.674404   -0.526642
H       2.208907    0.567812   -1.050842
H       1.673510   -1.006033   -1.649595
H       0.886234    0.473314   -2.220056
H       1.852132   -0.314251    1.349210
H       0.331789   -1.096745    3.179225
H      -1.027610   -1.262872    1.981246
H       1.726213   -2.670868    1.819279
H      -0.660495   -2.811949   -0.101623
H       1.560772   -3.166159   -1.217484
H       1.941616   -4.437217   -0.050663
H       0.613292   -4.661334   -1.195554
H      -1.206344   -3.979526    2.031632
H      -1.007869   -5.141709    0.707346
H       0.278779   -4.930939    1.902660
