21

C      -0.146526    1.553826    0.036400
C       0.006473    0.030943   -0.003558
C       0.770298   -0.469149   -1.267039
C       1.964144   -1.359306   -0.827661
C       2.873007   -0.473087    0.052421
O       2.134571    0.028009    1.164621
C       0.791995   -0.502748    1.222848
C       0.832628   -2.009647    1.155957
C       1.447825   -2.463430    0.062785
H       0.833617    2.036642    0.093043
H      -0.661186    1.921523   -0.857380
H      -0.726621    1.870370    0.910405
H      -0.990795   -0.422536    0.022926
H       0.108662   -1.029049   -1.933315
H       1.155591    0.384210   -1.837004
H       2.520954   -1.729838   -1.691460
H       3.736564   -1.044661    0.418983
H       3.247783    0.381118   -0.529286
H       0.375959   -0.124875    2.159123
H       0.404121   -2.630154    1.934746
H       1.603243   -3.511262   -0.169805
