17

C      -0.058918    1.447689    0.069700
C      -0.003380   -0.004430    0.036464
C       0.059827   -1.208932    0.010160
C       0.111215   -2.620709   -0.022330
N       1.189888   -3.386778    0.036303
C       0.742085   -4.682870   -0.029457
C       1.686842   -5.840133    0.009396
C      -0.629786   -4.702671   -0.129532
N      -1.021821   -3.387175   -0.124228
H       0.944277    1.871364    0.187142
H      -0.485135    1.853996   -0.854599
H      -0.670927    1.806259    0.905093
H       2.272025   -5.838607    0.935113
H       1.149182   -6.790181   -0.053859
H       2.399261   -5.793686   -0.821080
H      -1.339453   -5.510327   -0.201764
H      -1.962466   -3.035450   -0.183518
