20

C      -0.645390    1.328154    0.118570
C      -0.063248   -0.072946   -0.027795
C       0.724891   -0.495981   -1.314428
C       1.557711    0.588552   -2.026229
N       2.556285    0.514077   -0.945998
C       3.963916    0.611946   -1.248839
C       2.000409   -0.768361   -0.441973
C       1.184165   -0.431601    0.820739
O       1.409200   -0.429870    1.995444
H       0.113117    2.092888   -0.069412
H      -1.479808    1.488357   -0.572012
H      -1.015859    1.472580    1.137847
H      -0.839636   -0.819584    0.186858
H       0.253573   -1.258647   -1.929807
H       1.942550    0.224328   -2.993054
H       1.111857    1.578356   -2.177959
H       4.189497    1.615600   -1.625037
H       4.550752    0.457493   -0.337978
H       4.300340   -0.121317   -2.006266
H       2.646745   -1.649695   -0.502337
