18

C       0.010162    1.717195    0.006118
C       0.008298    0.202165   -0.010284
C       0.448834   -0.668900   -1.139465
C       1.139558   -0.162846   -2.384903
O       2.082541    0.896546   -2.172412
C       2.864604    0.908767   -1.063342
O       3.766722    1.695451   -0.985940
C       2.534320   -0.086217    0.046083
N       1.197449   -0.665032    0.115852
H       0.697743    2.174642   -0.703105
H      -0.996720    2.072218   -0.238174
H       0.246716    2.087328    1.009737
H      -0.810014   -0.207174    0.581773
H      -0.110818   -1.584298   -1.336470
H       1.663971   -0.999146   -2.866797
H       0.417903    0.230430   -3.107379
H       3.246336   -0.915844   -0.056722
H       2.777254    0.409036    0.989787
