17

N       0.037225    1.280380    0.099590
C      -0.035042    0.014727    0.044343
N      -1.233844   -0.668640   -0.066084
C      -1.484856   -2.116769   -0.049282
C      -1.556096   -2.747953    1.368667
C      -3.068952   -2.379746    1.454500
C      -3.011766   -1.794267    0.006373
C      -2.602010   -0.313579   -0.026322
O      -3.163156    0.739913    0.001481
H       1.011242    1.570477    0.169831
H       0.814602   -0.681336    0.066610
H      -1.004092   -2.667925   -0.858287
H      -1.380541   -3.826204    1.356307
H      -0.895169   -2.295095    2.110893
H      -3.722216   -3.249905    1.536129
H      -3.353384   -1.662106    2.226172
H      -3.739664   -2.129724   -0.729030
