16

N      -0.748945    0.090194   -1.040323
C      -0.043763   -0.100806    0.102157
O       1.080767    0.316501    0.301107
C      -0.809359   -0.909308    1.173872
N      -0.971536   -2.315956    0.841219
C      -1.944636   -2.776383    0.011097
N      -2.794700   -2.013132   -0.573356
C      -1.964384   -4.283392   -0.142788
O      -2.788629   -4.849643   -0.808558
H      -0.288487    0.545019   -1.812184
H      -1.644632   -0.369975   -1.168977
H      -0.240145   -0.830113    2.100216
H      -1.808703   -0.486458    1.317432
H      -0.233258   -2.947503    1.105853
H      -3.457063   -2.596096   -1.086230
H      -1.169391   -4.840533    0.401635
