19

C      -0.048786    1.543724    0.068060
C      -0.073200    0.017352   -0.032366
C       0.738229   -0.522559   -1.218174
N       2.160018   -0.138391   -1.129789
C       2.889398   -1.182462   -1.268990
N       4.258241   -1.163220   -1.370513
C       2.126381   -2.474328   -1.383993
O       1.332010   -2.700504   -0.203458
C       0.724178   -2.047977   -1.325668
H       0.977742    1.905260    0.164323
H      -0.483318    2.006954   -0.825286
H      -0.622389    1.888462    0.934107
H       0.328388   -0.432155    0.882059
H      -1.108249   -0.335171   -0.131069
H       0.324430   -0.102832   -2.147942
H       4.680973   -0.277165   -1.130825
H       4.749570   -1.964988   -1.005608
H       2.505253   -3.357673   -1.890065
H      -0.087937   -2.591997   -1.800507
