16

C      -0.044640    1.535010    0.025958
C       0.065521    0.034487    0.022521
C      -0.801835   -0.846259    0.907785
C       0.686830   -0.850282    1.098303
O       1.404731   -1.854920    0.402793
C       1.161713   -1.608821   -0.922404
N       0.457800   -0.584254   -1.224943
C       1.734359   -2.531284   -1.839028
C       2.223541   -3.316660   -2.605432
H       0.889600    1.996010   -0.308775
H      -0.842948    1.859164   -0.649036
H      -0.274192    1.906955    1.028739
H      -1.373763   -0.339903    1.678100
H      -1.279102   -1.716430    0.469635
H       1.174948   -0.538613    2.012741
H       2.654097   -4.005062   -3.290654
