19

C      -0.005627    1.498185    0.028298
C      -0.054172    0.004773   -0.016614
C      -0.079713   -0.778263   -1.102496
C      -0.008528   -2.232112   -0.726500
O       1.370282   -2.695108   -0.468784
C       1.157963   -2.684059    0.957214
C       1.461167   -1.320505    1.629673
C       0.009235   -0.826213    1.248226
C      -0.322744   -2.276632    0.785544
H       0.910698    1.844205    0.524328
H      -0.036480    1.937401   -0.972146
H      -0.843477    1.903496    0.609694
H      -0.065105   -0.425570   -2.127726
H      -0.509423   -2.926333   -1.406772
H       1.524893   -3.595956    1.434463
H       1.586939   -1.425751    2.711768
H       2.300876   -0.755785    1.218924
H      -0.558870   -0.406097    2.081532
H      -1.191917   -2.807352    1.168146
