16

N       0.127603    1.332327    0.249330
C      -0.003830   -0.025425    0.106383
N      -1.054466   -0.753050    0.326367
C      -0.601251   -2.060093    0.105423
C       0.702271   -2.033360   -0.243165
O       1.106292   -0.704940   -0.245231
N      -1.403472   -3.205133    0.231504
C      -2.426163   -3.177063    1.292149
C      -2.823879   -3.057191   -0.130480
H       0.837580    1.752598   -0.332192
H      -0.754798    1.820935    0.231085
H       1.439887   -2.769125   -0.503746
H      -2.551995   -4.116021    1.822964
H      -2.484412   -2.277578    1.897419
H      -3.147315   -2.078145   -0.470529
H      -3.245822   -3.907062   -0.658692
