16

C      -0.263053    1.550025    0.059782
C      -0.003266    0.048413    0.031679
C       0.684861   -0.538104   -1.274949
N       1.792329   -0.966506   -0.399119
C       3.004327   -1.529938   -0.074962
C       3.088897   -1.319843    1.290234
N       1.982602   -0.653529    1.801237
C       1.246709   -0.475051    0.730648
H       0.632177    2.111448   -0.225363
H      -1.074496    1.821001   -0.623680
H      -0.549823    1.866841    1.066739
H      -0.913068   -0.501740    0.293321
H       0.160190   -1.364377   -1.761866
H       0.976484    0.210519   -2.016977
H       3.665703   -2.003789   -0.779398
H       3.899086   -1.617919    1.939341
