19

C       0.005128    1.532404    0.039193
C       0.048065    0.017332    0.026980
C      -1.190295   -0.642607   -0.556163
C       1.320264   -0.734509   -0.205652
N       2.479498    0.017917    0.291746
C       1.964059   -0.097348    1.694994
C       0.667091   -0.763469    1.200280
C      -0.018672   -1.789562    1.905510
N      -0.569323   -2.624167    2.491779
H       0.971334    1.964048    0.303791
H      -0.258427    1.901544   -0.958085
H      -0.754171    1.895392    0.739690
H      -1.351540   -0.294930   -1.581733
H      -1.107159   -1.732959   -0.574194
H      -2.079465   -0.390527    0.030706
H       1.414624   -1.532440   -0.934009
H       3.335921   -0.512946    0.182016
H       2.551647   -0.785186    2.307971
H       1.863815    0.859457    2.216763
