20

C      -0.160375    1.549285   -0.475654
C      -0.268737    0.028269   -0.409382
C      -1.400912   -0.469155    0.477939
O      -2.066056    0.282214    1.158046
C      -1.681922   -1.960528    0.431116
C      -2.717846   -2.568654    1.406743
N      -3.576585   -3.092372    0.279327
C      -4.005038   -1.900491   -0.474352
C      -2.636758   -2.412072   -0.693023
H       0.683293    1.851034   -1.102448
H      -1.072217    1.987810   -0.889736
H      -0.022202    1.972011    0.522301
H      -0.401017   -0.410350   -1.408248
H       0.660979   -0.418118   -0.027276
H      -0.746151   -2.524622    0.401455
H      -2.329545   -3.398648    1.998631
H      -3.226462   -1.851815    2.055624
H      -4.744240   -2.128034   -1.236019
H      -4.158254   -0.963842    0.055700
H      -2.323838   -2.887239   -1.617403
