19

C       0.036107    1.492390   -0.024062
C       0.019827    0.037547    0.034327
C       0.019189   -1.165329    0.084624
C      -0.015305   -2.621411    0.145068
C      -1.434144   -3.184490   -0.037539
N      -1.411829   -4.641623    0.048767
C      -2.738155   -5.230486   -0.087473
C      -2.673720   -6.694082   -0.043257
N      -2.622118   -7.847767   -0.032628
H       0.716965    1.852487   -0.803237
H      -0.959539    1.892884   -0.244753
H       0.362976    1.925933    0.927520
H       0.639766   -3.040731   -0.631788
H       0.380512   -2.979107    1.103023
H      -2.077084   -2.804255    0.764940
H      -1.857515   -2.810738   -0.986577
H      -0.801670   -5.021761   -0.668810
H      -3.363506   -4.887411    0.746357
H      -3.269799   -4.942406   -1.013471
