18

C       0.001267    1.543191    0.040721
C       0.035396    0.028795    0.030644
C      -1.196501   -0.638842   -0.555329
C       1.311954   -0.718229   -0.191374
O       2.453862   -0.021125    0.285890
C       1.968205   -0.090238    1.650988
C       0.663641   -0.756509    1.202126
C      -0.002466   -1.793200    1.910049
N      -0.548320   -2.626880    2.500877
H       0.972655    1.969816    0.295910
H      -0.268433    1.912089   -0.954610
H      -0.746969    1.914786    0.748313
H      -1.364250   -0.282327   -1.576602
H      -1.101033   -1.727999   -0.585384
H      -2.086382   -0.403821    0.037326
H       1.462616   -1.503435   -0.924727
H       2.597446   -0.757143    2.247452
H       1.897822    0.892895    2.126861
