18

C      -0.071227    1.574974    0.046801
C       0.035350    0.042464    0.038652
N       0.808825   -0.461100   -1.076037
C       1.864042   -1.269926   -0.700355
O       2.629890   -1.841717   -1.447206
C       1.829242   -1.268565    0.790188
C       0.798895   -0.535100    1.219003
C       0.380694   -0.277584    2.628726
O       1.222511   -1.000209    3.503292
H       0.923578    2.026336    0.096890
H      -0.565605    1.928658   -0.863185
H      -0.661690    1.922424    0.900570
H      -0.984044   -0.377563    0.027853
H       0.549402   -0.344761   -2.040842
H       2.544832   -1.804907    1.394047
H       0.425369    0.807134    2.829863
H      -0.678255   -0.568206    2.750219
H       0.972164   -0.788537    4.406932
