12

N       0.035458    1.362416    0.143465
C      -0.057146    0.007843    0.051930
C      -1.210758   -0.720490    0.028947
C      -1.146695   -2.149227   -0.012218
O      -2.069933   -2.944591   -0.038336
C       0.275968   -2.620062   -0.022838
F       0.455704   -3.919914   -0.054854
N       1.348484   -1.922937   -0.006974
O       1.174246   -0.540814    0.026028
H       0.923874    1.773950   -0.096303
H      -0.781362    1.900842   -0.092097
H      -2.173314   -0.226187    0.049496
