22

C       0.008661    1.616241    0.089438
C       0.014179    0.091467   -0.052746
C      -1.391712   -0.517324    0.015526
C      -1.426742   -2.044559   -0.064601
C      -2.849963   -2.642825    0.060709
C      -2.808948   -3.923237   -0.786161
C      -1.683470   -3.674878   -1.796275
O      -1.419438   -4.326961   -2.782027
N      -1.003801   -2.566583   -1.358301
H       1.021960    2.025515    0.035228
H      -0.583373    2.084662   -0.704319
H      -0.424218    1.921629    1.048382
H       0.488902   -0.176238   -1.006032
H       0.639104   -0.349412    0.735240
H      -1.866407   -0.219423    0.960313
H      -2.013623   -0.109772   -0.792175
H      -0.784307   -2.448576    0.735937
H      -3.126489   -2.811875    1.103596
H      -3.570144   -1.934808   -0.363395
H      -2.533647   -4.803445   -0.193430
H      -3.742799   -4.157960   -1.299771
H      -0.121023   -2.330879   -1.783560
