18

O      -0.047145    0.037097    0.880618
C       0.033309    1.167895    0.454545
N       1.181116    1.757677    0.010709
C       2.427287    1.066052   -0.070615
C       2.905060    0.014472   -1.093951
C       4.090908    0.205986   -0.125974
C       3.831635    1.746585    0.029353
C       3.843733    1.668768    1.569490
C       3.158789    0.360470    1.124695
H      -0.833640    1.856463    0.390367
H       1.111418    2.678293   -0.395318
H       2.395256   -0.952017   -1.067524
H       3.048786    0.357550   -2.124187
H       5.069098   -0.270998   -0.135772
H       4.207542    2.527860   -0.635423
H       4.822900    1.574007    2.048107
H       3.221317    2.391528    2.105628
H       2.735968   -0.446846    1.719495
