18

C       0.009036    1.557881    0.004619
C      -0.010261    0.048904    0.017185
C      -1.318411   -0.700885   -0.260189
C      -1.405299   -1.698713    0.909454
O      -0.049273   -1.945705    1.323510
C       0.694275   -0.773720    1.074547
C       1.253268   -0.737480   -0.324530
O       1.197473   -1.897949   -1.089697
H       0.997446    1.944783    0.273783
H      -0.235882    1.947845   -0.989917
H      -0.714020    1.974608    0.715916
H      -2.172520   -0.018763   -0.274747
H      -1.273637   -1.220921   -1.221816
H      -1.969895   -1.270791    1.750320
H      -1.849511   -2.662526    0.646615
H       1.206609   -0.361581    1.939173
H       2.154106   -0.155777   -0.506637
H       0.902516   -2.595029   -0.485562
