18

O      -0.025425    1.415771    0.012422
C       0.032470    0.009668    0.070427
C      -1.347486   -0.619711   -0.080427
C      -1.373246   -2.136028   -0.015591
C      -2.829655   -2.565397    0.014527
O      -3.547620   -1.907203    1.066409
C      -3.296157   -0.610065    1.388470
N      -4.072656    0.083030    2.101105
O      -2.119997   -0.067607    1.002821
H      -0.667609    1.692520    0.677263
H       0.671912   -0.321052   -0.754904
H       0.480588   -0.345979    1.012412
H      -1.791880   -0.270778   -1.023981
H      -0.872756   -2.566114   -0.888819
H      -0.854766   -2.483700    0.884801
H      -3.317087   -2.338440   -0.943569
H      -2.945063   -3.633601    0.210785
H      -4.887281   -0.472315    2.354031
