18

C      -0.091465    1.531286   -0.081675
C       0.001061    0.020047   -0.029866
C      -1.237308   -0.708139   -0.515442
C       1.334130   -0.624334   -0.259215
C       0.739879   -0.633296    1.151339
C       1.330642    0.143933    2.186264
C       1.824334    0.797888    3.078420
C       2.385622    1.535597    4.077767
N       2.864694    2.166843    4.928631
H       0.813321    2.009167    0.301497
H      -0.240242    1.864711   -1.114542
H      -0.937863    1.893102    0.512104
H      -1.441880   -0.458067   -1.562630
H      -1.121495   -1.794198   -0.448649
H      -2.116716   -0.424591    0.072884
H       1.378211   -1.580809   -0.768683
H       2.194119    0.015958   -0.419608
H       0.332073   -1.582893    1.486814
