23

C      -0.060331    1.399960    0.035618
O      -0.031108   -0.005313    0.017453
C       0.695007   -0.556850    1.096119
C       0.637499   -2.077498    1.012289
C       1.466550   -2.731014    2.128066
C       1.512460   -4.257441    1.965324
C       0.157397   -4.831628    1.641504
C      -0.877636   -4.089298    1.250434
C      -0.809808   -2.597410    1.053566
H       0.951365    1.832280   -0.029075
H      -0.639310    1.728743   -0.831115
H      -0.537751    1.788391    0.949784
H       1.743402   -0.211281    1.065778
H       0.270011   -0.213693    2.057312
H       1.073780   -2.368001    0.046353
H       2.484038   -2.322748    2.141656
H       1.015152   -2.485196    3.098918
H       2.226726   -4.531139    1.174078
H       1.903596   -4.720015    2.880540
H       0.042936   -5.908781    1.740016
H      -1.835407   -4.565315    1.051528
H      -1.360720   -2.092235    1.863242
H      -1.328706   -2.312317    0.132397
