18

O       0.029706    1.467233   -0.054757
C       0.040997    0.060531   -0.011880
C      -1.374918   -0.537710    0.041817
C      -1.405600   -2.090033    0.007768
C      -2.215478   -2.478134    1.217575
C      -2.590218   -1.422161    1.952809
C      -2.096029   -0.192581    1.340112
N      -2.169949    1.018943    1.750679
O      -2.837016    1.119499    2.983112
H      -0.558856    1.759117    0.658203
H       0.546678   -0.282716   -0.921892
H       0.620153   -0.321688    0.847481
H      -1.936100   -0.123604   -0.802659
H      -1.843723   -2.478649   -0.918592
H      -0.394256   -2.516485    0.065614
H      -2.443623   -3.511742    1.454268
H      -3.156877   -1.439135    2.872365
H      -2.851873    2.070487    3.133046
