15

N       0.019182    1.299755   -0.022217
C      -0.035708   -0.065292   -0.007482
N      -1.110426   -0.742254    0.149949
C      -0.800309   -2.162718    0.166973
C       0.692525   -2.307379   -0.155071
O       1.303440   -3.306886   -0.397061
C       1.266007   -0.858376   -0.099167
C       2.150934   -0.485681   -1.184184
C       2.864592   -0.153169   -2.092567
H       0.787871    1.707653   -0.532952
H      -0.870373    1.762581   -0.142781
H      -1.009230   -2.616305    1.146686
H      -1.400441   -2.719088   -0.563465
H       1.802359   -0.772107    0.858397
H       3.504401    0.119755   -2.895327
