15

C      -0.073994    1.459435    0.043995
C       0.030318   -0.025050   -0.022015
C       0.065363   -0.841534   -1.098505
O       0.175204   -2.146669   -0.644113
C       0.187748   -2.007721    0.697205
O       0.324970   -3.102934    1.453579
C      -0.008226   -4.331100    0.936302
N       0.271336   -5.349184    1.615100
N       0.107443   -0.802730    1.140683
H       0.793008    1.885793    0.559056
H      -0.131319    1.894424   -0.956843
H      -0.964098    1.760741    0.605827
H       0.028088   -0.712402   -2.165539
H      -0.503971   -4.272671   -0.033885
H      -0.048725   -6.187795    1.134485
