18

C      -0.022399    1.529094    0.001612
C      -0.023676    0.005895    0.078331
N       0.853114   -0.461947    1.139144
C       0.904004   -1.842162    1.376452
C       0.447064   -2.855818    0.556031
N       0.767741   -4.055975    1.163332
C       1.401044   -3.821756    2.349623
C       1.506595   -2.460134    2.514393
H       0.991468    1.908369   -0.156298
H      -0.656096    1.876126   -0.819493
H      -0.409406    1.971252    0.927387
H      -1.057673   -0.366212    0.198618
H       0.344339   -0.409515   -0.869021
H       0.723505    0.062795    1.994715
H      -0.063271   -2.830125   -0.391181
H       0.554545   -4.962046    0.788627
H       1.729046   -4.633813    2.978461
H       1.968936   -1.952015    3.347160
