14

O      -0.297715    0.056800    0.143533
C      -0.036191    1.219327   -0.001744
C       1.373637    1.743745   -0.278696
C       1.377114    2.833067   -1.314665
N       1.970134    2.585682   -2.492751
C       1.925096    3.584560   -3.361981
C       1.282459    4.780480   -3.041940
N       0.697643    4.957618   -1.860514
N       0.751117    3.968260   -0.976595
H      -0.807368    2.015235    0.073482
H       1.731969    2.162481    0.670970
H       2.018229    0.917435   -0.577693
H       2.400696    3.433635   -4.328342
H       1.226499    5.612091   -3.736510
