19

C       0.032641    1.458715   -0.173978
C      -0.025238   -0.024212    0.005887
O       0.526779   -0.889295   -1.068599
C       0.032169   -1.828828   -0.045475
C       0.572675   -0.947317    1.104478
C      -0.396025   -1.010559    2.288140
C      -1.766164   -1.036513    1.541652
C      -1.272484   -0.981661    0.108316
O      -2.224693   -0.974402   -0.889240
H       1.059722    1.790491   -0.353931
H      -0.587069    1.766130   -1.022628
H      -0.342132    1.964208    0.722038
H       0.162840   -2.895288   -0.232811
H       1.648594   -0.920689    1.270181
H      -0.237083   -1.903424    2.899686
H      -0.294831   -0.142776    2.946807
H      -2.344437   -1.944004    1.737292
H      -2.403602   -0.180817    1.782701
H      -1.724816   -0.950772   -1.718820
