18

C       0.053975    1.529935   -0.003844
C      -0.010573    0.005685    0.083408
N       0.705461   -0.538288    1.250899
C      -0.036812   -0.849377    2.393657
O       0.367138   -1.253470    3.449584
C       2.097444   -0.654711    1.106704
O       2.667027   -0.320661    0.093230
O       2.690238   -1.168039    2.182795
C       4.114399   -1.301354    2.076510
H       1.090342    1.861499   -0.096056
H      -0.497389    1.877217   -0.883055
H      -0.388325    1.996043    0.882328
H      -1.047893   -0.332325    0.156752
H       0.425199   -0.443972   -0.809630
H      -1.111424   -0.667493    2.195655
H       4.378975   -1.965841    1.250627
H       4.581393   -0.327420    1.911985
H       4.433829   -1.724766    3.028098
