20

C       0.004484    1.543952   -0.028621
C      -0.013472    0.012002    0.037896
C       0.778719   -0.530586    1.233563
N      -1.383633   -0.502616    0.032435
C      -2.370796   -0.293117    0.984310
N      -3.505937   -0.843610    0.775681
C      -3.353653   -1.560008   -0.497850
C      -1.919743   -1.310938   -0.969131
N      -1.257461   -1.683645   -1.990035
H       1.034069    1.905687   -0.107546
H      -0.552812    1.901980   -0.898383
H      -0.436178    1.990724    0.869609
H       0.419363   -0.387147   -0.883657
H       0.762818   -1.623666    1.246857
H       1.820962   -0.202831    1.175004
H       0.370321   -0.169370    2.184000
H      -2.150066    0.317161    1.853631
H      -3.545430   -2.630647   -0.361007
H      -4.081115   -1.195349   -1.232426
H      -1.829336   -2.266588   -2.598399
