18

C      -0.009564    1.423580    0.237568
N       0.094357   -0.012874    0.084325
C       0.483587   -0.580467   -0.990712
C       0.863633    0.137600   -2.269529
O       1.427368    1.201853   -2.312874
N       0.430158   -1.964798   -1.118099
C      -0.101652   -2.707161    0.013489
C       1.506160   -2.646491   -1.825077
H       0.857834    1.789521    0.801601
H      -0.056096    1.997723   -0.693640
H      -0.896295    1.644637    0.841627
H       0.522715   -0.371927   -3.198200
H      -1.030483   -2.245721    0.348261
H      -0.291199   -3.737261   -0.302730
H       0.590590   -2.720216    0.868304
H       2.370367   -2.847107   -1.172186
H       1.143785   -3.602895   -2.214893
H       1.861517   -2.051901   -2.669452
