14

O      -0.019743    1.447754   -0.003850
C       0.065519    0.023671    0.006966
C       0.675010   -0.494949   -1.219974
C       1.195712   -0.868898   -2.235782
C       0.786369   -0.452576    1.246906
C       1.185029    0.295294    2.328303
N       1.739432   -0.618832    3.158702
N       1.689553   -1.858169    2.637127
N       1.110476   -1.756367    1.475982
H       0.807363    1.778724   -0.371724
H      -0.975058   -0.322942    0.053713
H       1.648974   -1.218908   -3.130433
H       1.110220    1.342955    2.559265
H       2.159501   -0.481915    4.064243
