16

C      -0.278908    1.506355   -0.037195
C       0.034771    0.030470    0.067898
O       1.111593   -0.429574   -0.813154
C       1.699769   -1.145137    0.262291
C       2.226128   -0.222893    1.336467
C       2.815022    1.062312    1.090818
C       3.367098    2.117200    0.918131
C       0.739015   -0.587078    1.279843
H       0.588402    2.118840    0.208848
H      -0.602310    1.744984   -1.055627
H      -1.098954    1.757345    0.644505
H      -0.859227   -0.564998   -0.161688
H       2.087051   -2.139379    0.069386
H       2.712628   -0.781054    2.135417
H       3.841790    3.052161    0.751485
H       0.247404   -1.052760    2.123476
