16

O      -0.189738    0.397298    0.891944
C       0.057617    1.248791    0.082950
C       1.476651    1.701567   -0.233289
O       1.442315    2.529244   -1.384159
C       2.304961    3.564363   -1.435336
N       2.402886    4.258117   -2.478551
C       3.328717    5.367533   -2.464115
C       4.289401    5.278864   -3.645058
O       5.383445    5.776877   -3.653952
H      -0.725282    1.784815   -0.495701
H       1.872069    2.239430    0.640387
H       2.109780    0.822264   -0.403018
H       2.870450    3.731203   -0.505491
H       2.765155    6.303481   -2.603380
H       3.916061    5.476176   -1.539135
H       3.880705    4.721036   -4.515383
