22

C       0.034549    1.590580    0.008160
C       0.085242    0.071037   -0.012367
C       1.146523   -0.639657   -0.900936
C       1.362031   -1.668383    0.234539
C       0.743898   -3.113339    0.136513
C       2.124023   -3.679146    0.483829
N       3.041532   -3.200741   -0.580383
C       2.705999   -2.313226    0.565492
C       0.682020   -0.678382    1.213656
H       1.021496    2.013467    0.229854
H      -0.288439    1.991565   -0.959315
H      -0.663201    1.957820    0.769601
H      -0.910541   -0.328263   -0.236836
H       0.831654   -1.023152   -1.873977
H       2.034131   -0.013449   -1.045323
H      -0.006172   -3.294426    0.910847
H       0.351044   -3.415358   -0.838304
H       2.354992   -4.572279    1.051434
H       3.958857   -3.600769   -0.380336
H       3.486355   -1.915305    1.205041
H       1.423153   -0.057919    1.732016
H      -0.008045   -1.087443    1.957602
