15

C       0.411687    1.569539   -0.036358
C       0.117017    0.077397   -0.042254
O       0.791376   -0.527155   -1.143682
C       0.647037   -1.901751   -1.137698
O       1.371305   -2.520962   -0.062074
C       1.340197   -1.930768    1.154433
O       1.912981   -2.400627    2.091089
C       0.534419   -0.601451    1.264405
O       0.261760   -0.158285    2.346033
H       1.489642    1.742200    0.020177
H       0.029688    2.030232   -0.949830
H      -0.065260    2.029638    0.830766
H      -0.970049   -0.091028   -0.144897
H      -0.410659   -2.200497   -1.061537
H       1.088623   -2.298021   -2.052008
