17

O      -0.087106    1.314486    0.008417
C      -0.003365   -0.069831   -0.046618
C       1.018305   -0.722904   -0.981721
C       0.378685   -2.089732   -1.339239
C      -0.740908   -2.265200   -0.292771
C      -1.262254   -0.834681    0.018817
C      -0.352342   -0.794558    1.286442
C      -0.156167   -2.261706    1.145074
O       0.167159   -3.139515    1.898399
H       0.730223    1.652627    0.390945
H       1.151076   -0.089100   -1.863139
H       1.995638   -0.832250   -0.499886
H      -0.054172   -2.056271   -2.343898
H       1.091072   -2.918385   -1.310788
H      -1.459340   -3.057950   -0.498732
H      -2.265724   -0.445948   -0.074788
H      -0.456939   -0.204297    2.189001
