18

C      -0.166947    1.530975    0.087833
N      -0.069189    0.086181    0.195352
C      -1.268125   -0.722195    0.478390
C      -0.356528   -1.683663    1.237874
O      -0.414465   -2.801246    1.643348
C       0.772214   -0.594285    1.204001
C       2.148966   -1.054165    0.733010
C       0.832992    0.044588    2.588029
O       0.050326    0.864843    2.997544
H       0.835112    1.953468   -0.037589
H      -0.738840    1.775764   -0.813793
H      -0.641170    2.012671    0.952541
H      -1.993653   -0.250115    1.161721
H      -1.799100   -1.114445   -0.396480
H       2.062572   -1.576715   -0.221259
H       2.825459   -0.203098    0.599200
H       2.595311   -1.734300    1.465162
H       1.663223   -0.330693    3.227984
