18

C      -0.179211    1.319937   -0.098556
N      -0.031054   -0.114997    0.053098
C       0.700824   -0.661466    1.052762
O       1.352312   -0.025022    1.863992
C       0.711592   -2.208709    1.075064
C       1.422589   -2.734803    2.318335
O       1.548477   -4.141199    2.145118
C      -0.661729   -2.844732    0.910526
O      -1.457775   -2.541466    0.051934
H       0.575453    1.802909    0.522746
H      -0.030790    1.612040   -1.142703
H      -1.170605    1.661851    0.222035
H      -0.643487   -0.739338   -0.456090
H       1.284981   -2.535272    0.194877
H       2.392550   -2.237850    2.419296
H       0.833936   -2.488593    3.215089
H       1.962188   -4.505998    2.932660
H      -0.893141   -3.644428    1.640700
