19

C      -0.098399    1.545500    0.037015
C      -0.045836    0.025310   -0.018508
C       0.745957   -0.522752   -1.203046
O       2.080581   -0.057389   -1.228687
O       0.654531   -0.485907    1.159191
C      -0.054821   -0.656742    2.277923
O      -1.236067   -0.428247    2.399003
C       0.790889   -1.187755    3.422674
O       0.015551   -1.365408    4.572467
H       0.911321    1.961163    0.013967
H      -0.645883    1.925173   -0.831303
H      -0.615658    1.879424    0.938725
H      -1.054670   -0.396846   -0.013641
H       0.701466   -1.622251   -1.185896
H       0.276171   -0.183755   -2.132024
H       2.491117   -0.343860   -0.405320
H       1.253004   -2.132770    3.099674
H       1.614044   -0.478290    3.597577
H      -0.880519   -1.089616    4.328174
