21

C      -0.020024    1.520197    0.014783
C       0.000083    0.001568    0.017866
C       0.722403   -0.662779   -1.205195
C       0.979994   -2.127644   -0.728123
O       2.362718   -2.435239   -0.587527
C       0.352478   -2.133029    0.698996
C       0.739851   -0.716209    1.177935
C      -1.146694   -1.959348    0.508507
C      -1.354649   -0.704011    0.104797
H       0.996661    1.927657   -0.005577
H      -0.550673    1.911498   -0.860983
H      -0.520410    1.910968    0.907418
H       0.123364   -0.604337   -2.117787
H       1.684075   -0.172927   -1.394457
H       0.493714   -2.865489   -1.379501
H       2.775670   -2.351952   -1.452605
H       0.679309   -2.982680    1.297985
H       1.820197   -0.544189    1.174210
H       0.322331   -0.470143    2.157789
H      -1.875850   -2.756005    0.589573
H      -2.290289   -0.256110   -0.210245
