18

O      -0.040337    0.056835   -0.751619
C      -0.052739    1.143832   -0.259820
C      -1.135300    2.095800    0.273281
N      -0.068892    3.029841    0.728104
C      -0.014112    3.229756    2.176719
C       1.410432    3.549120    2.640810
C       2.356870    2.464387    2.191428
C       2.150195    1.801689    1.055057
C       1.021092    2.175667    0.150976
H      -1.801723    2.509794   -0.491816
H      -1.748225    1.665740    1.077352
H      -0.700528    4.041909    2.443492
H      -0.350019    2.329519    2.724121
H       1.726461    4.523950    2.244432
H       1.418935    3.640369    3.731761
H       3.211176    2.226694    2.818518
H       2.812729    1.011985    0.713678
H       1.428125    2.646807   -0.759350
