18

C      -0.031213    1.479025    0.028748
C      -0.049106   -0.027080    0.050310
C      -0.474411   -0.773268   -1.236480
C      -0.191337   -2.271801   -1.177942
C      -0.706424   -2.243447    0.303512
N       0.383748   -1.971344    1.231399
C       0.938685   -0.732094    0.948898
O       1.992051   -0.303154    1.365560
C      -1.314584   -0.838069    0.019567
H       0.963860    1.837898   -0.249460
H      -0.757569    1.877238   -0.686040
H      -0.264528    1.889198    1.016415
H      -0.641857   -0.186680   -2.131865
H      -0.879989   -2.818464   -1.828422
H       0.830991   -2.631844   -1.336729
H      -1.351080   -3.052649    0.640961
H       1.015225   -2.708937    1.511731
H      -2.306722   -0.472982    0.250311
