17

C      -0.056814    1.347933   -0.184072
O      -0.068830    0.033576    0.330773
C      -1.284885   -0.611238    0.175682
C      -1.542975   -1.429288   -1.172342
N      -0.587169   -2.431631   -0.596381
C      -1.285830   -2.095583    0.688595
C      -2.758060   -2.440205    0.416339
C      -2.927587   -1.991055   -0.834997
H       0.917213    1.779661    0.055938
H      -0.191325    1.362606   -1.275476
H      -0.844926    1.968646    0.270281
H      -2.121794    0.018799    0.504365
H      -1.340194   -1.033264   -2.167287
H      -0.814497   -3.378595   -0.905391
H      -0.815661   -2.386633    1.627346
H      -3.468119   -2.865558    1.111133
H      -3.818787   -1.942492   -1.444857
