23

C      -0.131216    1.611514    0.023689
C       0.018121    0.081438    0.031981
C       0.732482   -0.459257   -1.227216
C       2.241391   -0.164999   -1.231733
C       2.914675   -0.706813    0.037710
C       2.242554   -0.151468    1.304431
C       0.748714   -0.417320    1.274022
C       0.007988   -0.654374    2.518320
O       0.381394   -1.751507    1.679098
H       0.833606    2.125714   -0.022957
H      -0.715847    1.932263   -0.844681
H      -0.647698    1.961097    0.923558
H      -0.987494   -0.354090    0.065137
H       0.586424   -1.546069   -1.263075
H       0.258649   -0.047371   -2.125849
H       2.700541   -0.609927   -2.121497
H       2.415208    0.916549   -1.306238
H       2.836052   -1.801256    0.051013
H       3.982918   -0.464536    0.041403
H       2.670508   -0.606832    2.202874
H       2.419079    0.930003    1.374424
H       0.525012   -0.601672    3.476369
H      -1.060704   -0.443696    2.561320
