17

O       0.062742    1.553752   -0.212470
C       0.086194    0.135896   -0.213148
C      -1.311146   -0.449953    0.022357
C      -1.343175   -1.989330   -0.011679
O      -0.646586   -2.534106   -1.132625
C      -0.621685   -2.602740    1.214016
O      -0.449697   -2.031249    2.254129
C      -2.718988   -2.493368    0.042188
C      -3.841920   -2.922455    0.076910
H      -0.146392    1.843861    0.681185
H       0.451939   -0.161916   -1.198553
H       0.793317   -0.254953    0.531893
H      -1.686257   -0.135303    1.002488
H      -1.997077   -0.057167   -0.735017
H      -1.232877   -2.495849   -1.895906
H      -0.286697   -3.643747    1.027209
H      -4.836615   -3.295026    0.108580
