15

N       0.106986   -1.148675   -0.310214
C       0.047571   -0.010364   -0.119077
C       0.014454    1.430289    0.066983
C      -0.471065    2.302094   -1.124782
C       0.875090    3.091043   -1.110221
C       1.358903    2.258142    0.107728
N       1.308957    2.958601    1.389106
C       0.222679    2.619922    1.943687
O      -0.621784    1.744845    1.323865
H      -0.664615    1.733849   -2.035611
H      -1.362951    2.876287   -0.868479
H       1.479473    2.950678   -2.008141
H       0.794313    4.158236   -0.899799
H       2.299808    1.719003   -0.010020
H      -0.132661    2.962632    2.908473
