17

O      -0.119288    0.053484    0.129369
C      -0.105052    1.253278    0.058559
C      -1.321140    2.183061   -0.028163
C      -0.688774    3.549870   -0.036102
C       0.645843    3.511943    0.007218
C       1.181268    2.118691    0.054753
C       2.264416    1.688398    1.078820
C       3.050160    1.214186   -0.155698
O       2.055409    1.763609   -1.050697
H      -1.911720    1.969197   -0.928117
H      -1.988707    2.008233    0.824787
H      -1.278828    4.458931   -0.074444
H       1.299998    4.376052   -0.002641
H       2.713829    2.521583    1.621585
H       1.952144    0.912051    1.777829
H       4.033449    1.669567   -0.317655
H       3.130413    0.126972   -0.260786
