16

C      -0.021388    1.499715    0.067515
C       0.021608    0.003777    0.026244
C      -0.000135   -0.806726   -1.098266
N      -0.065475   -0.538404   -2.487134
N       0.055878   -2.108467   -0.682383
C       0.115085   -2.172690    0.693421
C       0.094191   -0.875031    1.147475
O       0.138213   -0.520083    2.468608
H       0.861805    1.931315    0.557972
H      -0.056539    1.912226   -0.945441
H      -0.903980    1.880836    0.599208
H       0.728637    0.006211   -2.807829
H      -0.903801   -0.023594   -2.736100
H       0.051601   -2.886524   -1.317803
H       0.165607   -3.106221    1.226351
H       0.108789    0.439512    2.522656
