14

N      -0.075406    0.956439    0.667134
C      -0.009355   -0.095996   -0.009524
O       1.134842   -0.716377   -0.454752
C       0.796183   -1.931374   -1.090693
C       0.788226   -3.195921   -0.202127
O       0.055814   -2.859778    0.971262
C      -0.695614   -3.214064   -0.184740
C      -0.754823   -1.952574   -1.076126
O      -1.124519   -0.747870   -0.444060
H       0.858011    1.299831    0.877906
H       1.307001   -2.022378   -2.049793
H       1.512797   -3.998137   -0.137592
H      -1.398264   -4.033889   -0.102477
H      -1.279181   -2.065780   -2.025468
