24

C      -0.224076    1.534382    0.087632
C      -0.093052    0.012281   -0.017331
C       0.759556   -0.463529   -1.209105
C       2.236682   -0.038337   -1.085000
C       0.694512   -1.995791   -1.296711
O       0.543947   -2.661323   -0.282642
N       0.838033   -2.593831   -2.528272
C       0.780824   -4.044806   -2.610515
C       1.054691   -1.925522   -3.795864
H       0.737684    2.021818    0.275639
H      -0.641545    1.967168   -0.829318
H      -0.891031    1.805560    0.911894
H       0.328212   -0.402202    0.903189
H      -1.091436   -0.429947   -0.109109
H       0.338475   -0.014253   -2.115150
H       2.332414    1.048951   -1.025299
H       2.675849   -0.472099   -0.180909
H       2.831304   -0.376732   -1.939218
H      -0.026155   -4.360108   -3.284463
H       1.724782   -4.448859   -2.998872
H       0.599717   -4.438371   -1.612427
H       1.185465   -0.853726   -3.671304
H       1.957013   -2.319841   -4.282073
H       0.210997   -2.093703   -4.479768
