16

C       0.075254    0.954377    0.838928
O      -0.541567    0.085959   -0.095561
C       0.297818   -0.425556   -1.100955
C       1.143787   -1.649388   -0.682466
C       2.350832   -1.328379    0.066196
C       3.357890   -1.060312    0.666008
C      -0.627276   -0.781550   -2.265962
O      -0.374232   -1.598216   -3.111125
H       0.800609    0.431478    1.471685
H       0.588934    1.784414    0.331278
H      -0.724062    1.360150    1.463446
H       0.975299    0.362769   -1.477662
H       0.498203   -2.318393   -0.101064
H       1.404654   -2.183861   -1.603609
H       4.248466   -0.831881    1.197211
H      -1.568259   -0.191419   -2.264138
