15

C      -0.019770    1.511421    0.063735
C      -0.000762    0.017122   -0.052044
C      -0.023762   -0.658120   -1.221921
C      -0.002603   -2.113036   -1.249197
O      -0.020134   -2.814083   -2.239881
N       0.042579   -2.697118    0.033443
C       0.067724   -2.059541    1.256500
O       0.106456   -2.625580    2.326091
N       0.043459   -0.672581    1.140994
H       0.874708    1.872396    0.584395
H      -0.056227    1.974200   -0.922685
H      -0.891894    1.845906    0.637305
H      -0.058452   -0.142133   -2.170263
H       0.058630   -3.707517    0.063893
H       0.060964   -0.180777    2.021092
