23

C       0.791460    0.921805   -0.001838
C       0.300577   -0.500867   -0.083866
C       0.564521   -1.534028   -1.229603
C      -0.304885   -2.286998   -0.183999
C       0.646516   -1.675823    0.885924
C      -1.204748   -0.998909   -0.047610
C      -2.029001   -0.809167    1.232943
C      -2.115432   -0.616606   -1.224386
O      -3.205204   -1.522809   -1.381621
H       1.886288    0.959878   -0.020549
H       0.422817    1.520980   -0.841893
H       0.457186    1.402527    0.924381
H       0.149830   -1.340304   -2.218075
H       1.598494   -1.879251   -1.316524
H      -0.641734   -3.325017   -0.234821
H       1.682046   -2.025511    0.849208
H       0.301581   -1.610458    1.916341
H      -1.600493   -1.271718    2.122186
H      -2.163180    0.258666    1.445150
H      -3.023220   -1.237955    1.079209
H      -2.579127    0.353862   -1.013769
H      -1.571999   -0.505468   -2.168968
H      -2.832312   -2.385896   -1.588415
