21

C       0.087868    1.557455   -0.043791
C       0.037027    0.031684   -0.166407
C      -1.358633   -0.564935    0.066097
C      -2.384184   -0.163722   -1.014184
C      -1.291443   -2.090209    0.160711
O      -0.301469   -2.729029   -0.131497
C      -2.500095   -2.745557    0.629368
C      -3.497020   -3.291341    1.036754
C      -4.687476   -3.968478    1.521905
H       1.113893    1.919523   -0.160920
H      -0.521696    2.054337   -0.805052
H      -0.269868    1.890830    0.937341
H       0.396156   -0.280105   -1.153711
H       0.730564   -0.417200    0.552260
H      -1.747248   -0.215690    1.034490
H      -2.037862   -0.470186   -2.007187
H      -3.354319   -0.633383   -0.831515
H      -2.531958    0.919020   -1.025432
H      -4.424647   -4.777047    2.212263
H      -5.358428   -3.278186    2.043625
H      -5.243813   -4.412525    0.688967
