21

C       0.049159    1.570558   -0.180575
C       0.008193    0.053065    0.017779
C      -1.410827   -0.521766   -0.030739
C      -1.450846   -2.050144    0.166209
C      -2.825569   -2.634062    0.146979
C      -3.604815   -3.207637    1.120238
N      -4.831806   -3.587947    0.623112
C      -4.805667   -3.250290   -0.643515
N      -3.618385   -2.669366   -0.985947
H       1.074296    1.951222   -0.137597
H      -0.370855    1.855150   -1.151827
H      -0.530521    2.086509    0.592689
H       0.624083   -0.435051   -0.749527
H       0.467651   -0.203849    0.981447
H      -2.031696   -0.048434    0.740062
H      -1.875129   -0.262385   -0.992484
H      -0.822821   -2.526889   -0.600283
H      -0.993661   -2.302030    1.129463
H      -3.343412   -3.369450    2.155690
H      -5.601438   -3.397682   -1.358703
H      -3.360429   -2.332470   -1.898422
