16

O       0.134411    1.474622    0.241613
C      -0.027057    0.089128    0.100988
C       0.158064   -0.734298    1.377558
C      -0.838059   -0.166846    2.405511
C      -1.881550   -0.738215    1.462738
N      -0.934010   -1.734877    0.868862
C      -1.421200   -0.539640    0.046738
C      -2.271280   -0.652943   -1.087226
C      -2.970394   -0.702294   -2.065584
H      -0.001605    1.888982   -0.616541
H       0.580915   -0.321240   -0.715246
H       1.136161   -1.111711    1.664567
H      -0.810303   -0.736145    3.337661
H      -0.818730    0.906379    2.605550
H      -2.912884   -1.001651    1.667697
H      -3.592684   -0.761180   -2.923989
