21

C      -0.503711    1.261305   -0.399715
C       0.104235   -0.119203   -0.176859
C       1.360246   -0.459623   -1.036783
C       2.256270   -0.348233    0.220089
C       3.167600    0.870304    0.261873
C       0.975382   -0.279686    1.107000
O       3.054519   -1.548196    0.359568
C       3.529433   -1.857652    1.576177
O       4.230791   -2.806891    1.774287
H       0.248482    2.055054   -0.328331
H      -0.962932    1.331137   -1.391754
H      -1.279338    1.474422    0.343961
H      -0.683485   -0.872925   -0.253677
H       1.355913   -1.479699   -1.424953
H       1.598507    0.229260   -1.851972
H       2.598848    1.784994    0.073329
H       3.653349    0.972501    1.238065
H       3.945046    0.782869   -0.503284
H       0.937121    0.541299    1.828741
H       0.785437   -1.218246    1.632287
H       3.200664   -1.160116    2.369323
