19

C      -0.116212    1.445456    0.111738
C      -0.044741   -0.047729   -0.018794
C      -0.872005   -0.868257   -1.014660
C      -1.136402   -1.854225    0.147917
N      -0.374545   -1.007066    1.133308
C       1.004928   -0.869697    0.623713
C       1.797307   -1.976086   -0.061468
C       2.194907   -3.040099    0.862338
N       2.509800   -3.877339    1.593530
H       0.409157    1.933789   -0.717819
H      -1.155255    1.791495    0.100495
H       0.342162    1.778377    1.047129
H      -1.774514   -0.342479   -1.332616
H      -0.358926   -1.233653   -1.910224
H      -2.182822   -1.898971    0.452985
H      -0.763639   -2.878485    0.050557
H       1.607879   -0.333931    1.353751
H       1.247106   -2.426490   -0.891412
H       2.705283   -1.539484   -0.494041
