19

C       0.638907   -0.673335    1.396566
C       0.100711    0.014280    0.138156
C       0.809035   -0.402824   -1.168954
O       2.194934   -0.175566   -0.987196
C       0.498383   -1.869049   -1.563430
C       1.397726   -2.336617   -2.611333
C       2.190025   -2.665746   -3.454934
C       0.293186    0.547257   -2.261325
O      -0.673106    0.349230   -2.949416
H       0.448281   -1.751003    1.392193
H       1.715948   -0.518838    1.486173
H       0.153427   -0.259995    2.285447
H      -0.972458   -0.169748    0.015996
H       0.221936    1.099258    0.247316
H       2.662586   -0.644742   -1.691573
H       0.590547   -2.517174   -0.686762
H      -0.538839   -1.912341   -1.911426
H       2.858558   -2.986537   -4.215560
H       0.902997    1.475848   -2.338767
