19

C       0.065221   -1.116935   -0.011847
C       0.024011    0.085997   -0.016630
C      -0.046625    1.516299   -0.001091
C      -1.231829    2.200778    0.702438
C      -1.430478    3.519546   -0.089159
C      -0.087170    3.723867   -0.799303
C       1.093494    3.751989    0.229631
C       1.299836    2.261279   -0.031015
C       0.378410    2.303855   -1.228329
H       0.104303   -2.177594   -0.010869
H      -2.116437    1.560597    0.665678
H      -1.011066    2.383024    1.759043
H      -2.231779    3.404518   -0.827740
H      -1.693571    4.363658    0.556683
H      -0.081218    4.511391   -1.552548
H       1.940099    4.333440   -0.144514
H       0.863247    4.077435    1.250474
H       2.217147    1.700169    0.099804
H       0.479758    1.885224   -2.220223
