17

O       0.196618    1.298659   -0.373500
C       0.097072   -0.077098   -0.084150
C       0.213763   -0.436579    1.428070
N      -1.263618   -0.593528    1.502451
C      -1.398135   -0.499260    0.026504
C      -2.522798    0.528417   -0.235460
N      -2.865270    0.935212    1.120019
C      -1.978365    0.481368    2.075218
O      -1.832587    0.909938    3.196750
H       1.092795    1.589485   -0.175875
H       0.710117   -0.678794   -0.768250
H       0.735384   -1.376460    1.630360
H       0.600548    0.349786    2.082312
H      -1.598470   -1.466171   -0.441393
H      -2.164024    1.364815   -0.844333
H      -3.374497    0.063651   -0.743173
H      -3.357807    1.791076    1.313210
