20

C       0.958653    0.997069    0.495566
C       0.471884   -0.369688    0.369505
C       0.051310   -1.494942    0.270945
C      -0.451036   -2.868296    0.151417
C      -1.904970   -2.915212   -0.364572
O      -2.027577   -2.494266   -1.706579
N       0.349148   -3.775323   -0.696353
C       1.129366   -3.210591   -1.800351
C       1.802598   -3.730484   -0.580891
H       2.051312    1.038517    0.428753
H       0.552375    1.639054   -0.293583
H       0.670459    1.431665    1.459083
H      -0.458147   -3.323098    1.151998
H      -2.272317   -3.942862   -0.229681
H      -2.525436   -2.242552    0.234507
H      -1.561470   -3.142688   -2.244307
H       1.123552   -3.795130   -2.716553
H       1.118411   -2.132466   -1.932956
H       2.234220   -2.988147    0.086836
H       2.299945   -4.696178   -0.586800
