16

C       0.483468    1.457385    0.165960
O       1.031944    0.254321   -0.381112
C      -0.309882    0.221896    0.098145
C      -0.534810   -0.636790    1.294574
C       0.539029   -1.040692    2.258217
C      -0.194529   -2.112982    1.473464
N      -1.345314   -2.703716    2.118360
C      -2.169088   -1.752087    2.292391
O      -1.846490   -0.508364    1.838785
H       0.903040    1.765835    1.121545
H       0.301046    2.253502   -0.553259
H      -1.073604    0.135883   -0.675422
H       1.549776   -0.828015    1.929634
H       0.350312   -0.960235    3.323436
H       0.337590   -2.720670    0.752395
H      -3.136432   -1.820568    2.774244
