21

C       0.077506    1.436639   -0.187928
C       1.426451    2.133741    0.084277
O       2.176843    1.582328    1.152093
C       1.828910    2.015730    2.449380
C       0.416264    1.616733    2.898588
C       0.114331    0.139958    2.734785
O      -1.174268   -0.216228    2.214594
C      -0.015117   -0.590493    1.459779
C       0.127853   -0.079284    0.038568
H      -0.736774    1.864655    0.402159
H      -0.179366    1.632868   -1.235725
H       2.068201    2.008925   -0.795187
H       1.280368    3.215764    0.232152
H       2.576428    1.562214    3.109817
H       1.936003    3.110169    2.531976
H       0.310433    1.888242    3.956232
H      -0.334742    2.199237    2.361911
H       0.415359   -0.469951    3.590321
H       0.195163   -1.662198    1.522765
H      -0.673045   -0.556120   -0.541057
H       1.069952   -0.480368   -0.355783
