21

C       0.020919    1.486373   -0.060816
C       0.009447   -0.030798    0.016073
C      -1.191799   -0.654849   -0.672690
C       1.348034   -0.756652   -0.065462
C       0.601233   -0.673862    1.247228
O       1.077806    0.221611    2.214096
C       0.002274   -1.932744    1.876365
C       0.979502   -2.600121    2.733743
C       1.818723   -3.094916    3.439280
H       0.868429    1.908705    0.479290
H       0.071037    1.811981   -1.106251
H      -0.893931    1.905495    0.374037
H      -1.240216   -0.320416   -1.715391
H      -1.155447   -1.747213   -0.687041
H      -2.128761   -0.354838   -0.188546
H       1.388659   -1.708980   -0.585707
H       2.244211   -0.151781   -0.154786
H       1.751930   -0.246933    2.722838
H      -0.874088   -1.652487    2.474705
H      -0.344076   -2.628412    1.106805
H       2.542089   -3.562678    4.060346
