18

C      -0.088036    1.546173   -0.017389
C      -0.022404    0.056335   -0.028008
C      -0.017604   -0.862119   -1.054424
N       0.043549   -2.117634   -0.535802
N       0.077664   -2.034576    0.761553
N       0.033617   -0.720486    1.087986
C       0.119337   -0.334329    2.483451
C       1.574691   -0.210894    2.963455
O       1.633595    0.188634    4.317951
H       0.794580    1.996356    0.450365
H      -0.147103    1.918616   -1.042162
H      -0.969211    1.912981    0.521295
H      -0.060993   -0.686833   -2.117694
H      -0.401210    0.615408    2.629402
H      -0.400801   -1.103014    3.061465
H       2.095575   -1.160177    2.779053
H       2.090475    0.565381    2.388611
H       1.392497   -0.565616    4.865105
