20

C      -0.455283    1.530009    0.197578
C       0.109989    0.113291   -0.017313
C       0.865119   -0.430414    1.150179
C       2.214890   -0.628724    1.333820
O       3.154453   -0.334605    0.380093
C       2.426580   -1.155083    2.639381
C       1.188908   -1.270325    3.239377
C       0.806338   -1.768299    4.593757
N       0.260490   -0.826066    2.335019
H       0.350055    2.239211    0.410067
H      -0.994653    1.876761   -0.690194
H      -1.151879    1.558769    1.042798
H      -0.712756   -0.564125   -0.288720
H       0.792471    0.120761   -0.872946
H       4.004538   -0.663916    0.683431
H       3.373219   -1.418348    3.089148
H       0.283404   -1.005501    5.184861
H       0.150520   -2.647268    4.544794
H       1.701068   -2.057591    5.149828
H      -0.731571   -0.810286    2.495959
