23

C      -0.040753    1.505445    0.104313
C       0.035997   -0.008379   -0.022221
C       0.806377   -0.483064   -1.257444
C       1.090294   -1.956266   -1.151116
C       1.007195   -2.629823   -0.002311
C       1.204957   -4.119763    0.077699
C       0.658996   -1.906962    1.287974
C       1.613492   -2.223343    2.440473
O       0.675445   -0.494445    1.150726
H       0.964321    1.929709    0.193286
H      -0.525570    1.941475   -0.774618
H      -0.610687    1.787899    0.993579
H      -0.986076   -0.423665   -0.072351
H       0.221673   -0.274605   -2.162888
H       1.739222    0.091207   -1.355255
H       1.348939   -2.486965   -2.065339
H       1.323525   -4.552872   -0.919079
H       2.088916   -4.386652    0.668824
H       0.348099   -4.610214    0.558196
H      -0.359058   -2.227591    1.587211
H       2.643690   -1.986812    2.158175
H       1.344597   -1.614387    3.307360
H       1.558150   -3.276519    2.726385
