13

O      -0.264605    0.397906   -0.682152
C       0.147950    1.092289    0.219614
C       1.350068    1.918779    0.117023
C       2.704919    1.629707   -0.525235
C       3.309854    2.559578    0.558918
C       2.487986    3.693316    0.062165
C       1.869187    2.782463   -1.030273
N       1.961691    2.825866    1.175149
H      -0.363941    1.153078    1.204902
H       3.025824    0.729046   -1.027449
H       4.220036    2.523073    1.143797
H       2.594044    4.766083    0.161007
H       1.419065    2.945276   -1.998400
