16

C       0.035401    1.401565   -0.101592
N      -0.084742   -0.039892   -0.073673
C      -1.255380   -0.677561    0.023716
N      -2.393590   -0.034817    0.104301
C      -3.518198   -0.805379    0.201249
N      -3.600772   -2.099981    0.222766
N      -2.395716   -2.741424    0.136149
C      -1.160453   -2.158282    0.033236
N      -0.007180   -2.721267   -0.050493
H       1.092340    1.664507   -0.164215
H      -0.492088    1.824510   -0.963193
H      -0.393954    1.847612    0.801422
H       0.720960   -0.647612   -0.131969
H      -4.462238   -0.275465    0.268707
H      -2.466953   -3.747473    0.153187
H      -0.062551   -3.739377   -0.034768
