19

C      -0.442853    1.456272    0.474164
N       0.136749    0.213781   -0.030531
C      -0.872160   -0.761053   -0.452496
C      -1.268853   -1.562025    0.813198
O      -1.348938   -2.986734    0.568311
C      -0.303019   -3.526800    1.241948
N       0.453482   -2.788697    1.942563
C      -0.045411   -1.417438    1.764861
C       0.936134   -0.499226    0.972035
H       0.361401    2.143473    0.752811
H      -1.027506    1.932130   -0.318856
H      -1.102281    1.336620    1.353721
H      -1.713942   -0.265274   -0.940443
H      -0.430136   -1.464635   -1.168717
H      -2.225655   -1.253474    1.237398
H      -0.199808   -4.599503    1.119379
H      -0.294861   -0.988896    2.738669
H       1.670555   -1.137848    0.468672
H       1.479052    0.203868    1.606809
