17

O       0.170274    1.331119   -0.409085
C      -0.093754    0.001062   -0.153077
C       0.110473   -0.659964    1.242879
C      -0.740203    0.206520    2.192256
C      -2.076846    0.174193    1.363918
C      -2.705866    1.513650    1.106506
O      -2.166505    2.436745    0.531232
C      -1.503205   -0.602954    0.124502
O      -0.827867   -1.690087    0.803048
H      -0.555510    1.885312   -0.071060
H       0.401122   -0.615192   -0.907272
H       1.064622   -1.044381    1.601151
H      -0.862070   -0.236757    3.181256
H      -0.329755    1.214694    2.294008
H      -2.812644   -0.470424    1.849774
H      -3.742453    1.643399    1.479732
H      -2.206158   -0.913466   -0.648328
