19

C      -0.120195    1.676358   -0.054909
C       1.385278    1.347583   -0.023542
C       1.177325    0.133066    0.950676
C      -0.061836    0.136716   -0.014652
C       1.206164    0.084715   -0.940319
C       1.967219   -0.817637    0.040696
C       3.492909   -1.019214    0.069121
O       3.336312   -2.453549    0.103432
C       1.896634   -2.354760    0.078927
H      -0.534061    2.177438    0.826093
H      -0.506629    2.131448   -0.972566
H       2.240506    2.024965   -0.027819
H       1.147821    0.176330    2.041245
H      -0.879421   -0.585641   -0.008650
H       1.209945    0.072177   -2.032066
H       4.038490   -0.686773   -0.824442
H       4.011272   -0.641098    0.960725
H       1.439449   -2.792854    0.976526
H       1.466702   -2.838502   -0.808643
