23

C       0.019966    1.542448    0.028608
C      -0.023049    0.016665   -0.000730
C       0.670582   -0.616514   -1.231551
C       0.074235   -2.038801   -1.206803
C       0.762810   -2.823286   -0.058784
C       0.541816   -2.137227    1.308223
C       0.653385   -0.595962    1.260244
C      -1.371218   -1.720083   -0.843287
C      -1.422840   -0.576133   -0.159922
H       1.051943    1.906799    0.088352
H      -0.434307    1.966834   -0.873293
H      -0.520481    1.940095    0.895526
H       0.374584   -0.088557   -2.144440
H       1.763821   -0.603045   -1.160298
H       0.184474   -2.576220   -2.153575
H       0.391167   -3.853488   -0.012680
H       1.834867   -2.887982   -0.284886
H      -0.457490   -2.399837    1.668776
H       1.246846   -2.537386    2.045086
H       1.708457   -0.291034    1.255879
H       0.213898   -0.173161    2.172220
H      -2.203724   -2.386481   -1.040294
H      -2.304672   -0.139455    0.297303
