19

C       0.743343    0.742247    0.217718
O       0.875310    0.370585   -1.141357
C      -0.110666   -0.552914   -1.570075
C       0.125167   -1.935949   -1.039182
C      -0.717571   -2.932525   -0.591905
C       0.129800   -4.023362   -0.270960
C      -0.248028   -5.371152    0.258257
N       1.407013   -3.717113   -0.494631
N       1.376718   -2.454923   -0.968866
H      -0.222299    1.236416    0.403597
H       0.827472   -0.120658    0.892349
H       1.549382    1.446475    0.435660
H      -1.121528   -0.221397   -1.289224
H      -0.053842   -0.545129   -2.665047
H      -1.792218   -2.882061   -0.511310
H      -0.901115   -5.907519   -0.439109
H       0.649935   -5.971500    0.418600
H      -0.785766   -5.292423    1.209549
H       2.236124   -1.972931   -1.172845
