14

C      -0.135364    1.271228   -0.338960
C       1.259794    1.049391    0.138862
N       0.293438   -0.046685    0.120400
C      -0.195743   -0.559305    1.304046
C      -1.461933   -0.788657    1.766489
C      -1.232423   -1.434879    3.006363
N       0.040311   -1.582650    3.280418
O       0.710931   -1.016873    2.182002
H      -0.803075    1.832447    0.309717
H      -0.346953    1.342183   -1.401012
H       2.073315    0.953589   -0.572582
H       1.533666    1.458307    1.107063
H      -2.395663   -0.547237    1.289198
H      -1.960545   -1.799730    3.718073
