12

C       0.027866    1.445034   -0.100002
N      -0.011879   -0.002567   -0.140731
C      -1.093482   -0.638117    0.057258
C      -1.147763   -2.083956    0.019518
N      -2.215275   -2.770165    0.212879
O      -3.368978   -2.071481    0.470409
N      -3.381615   -0.612715    0.522192
N      -2.345245    0.008590    0.332954
H       0.761568    1.744530    0.657023
H       0.413019    1.802460   -1.061773
H      -0.931340    1.926559    0.110748
H      -0.241971   -2.646913   -0.183198
