18

C       0.160952    1.563173    0.103459
C       0.000129    0.044014   -0.027486
O       0.702905   -0.522834    1.072702
C      -1.482747   -0.409296   -0.039753
C      -2.233243   -0.059361    1.253761
C      -3.532179   -0.827376    1.367427
O      -4.610303   -0.332032    1.562398
C       0.624355   -0.409584   -1.294767
N       1.101987   -0.798256   -2.272730
H       1.218150    1.829847    0.052677
H      -0.375460    2.079588   -0.695834
H      -0.231833    1.888074    1.069018
H       0.750757   -1.478358    0.951004
H      -1.983501    0.030339   -0.908811
H      -1.498513   -1.496753   -0.192241
H      -1.601961   -0.345952    2.106223
H      -2.457075    1.006782    1.332636
H      -3.419300   -1.932575    1.258303
