14

N       0.500975    1.091197   -0.304790
C       0.117127   -0.045743    0.096878
N      -1.213017   -0.456061    0.139396
C      -2.361586    0.353379    0.032474
O      -2.373629    1.547702    0.083572
N      -3.493737   -0.466937   -0.144058
C      -4.831824   -0.088585   -0.067708
N      -5.238077    1.001927    0.429333
H       1.516150    1.151118   -0.249333
H       0.773264   -0.857472    0.438004
H      -1.358771   -1.405560    0.442132
H      -3.329200   -1.383973   -0.526699
H      -5.471823   -0.881228   -0.477468
H      -6.254301    1.045947    0.378386
