22

C      -0.367727    1.537779   -0.081231
C      -0.055910    0.031527    0.003188
C      -1.325331   -0.773430    0.297264
O      -1.775385   -0.387664    1.591143
C       0.552712   -0.467314   -1.309988
O      -0.162969   -0.992202   -2.152711
N       1.898509   -0.288587   -1.522356
C       2.472158   -0.729863   -2.783707
C       2.837815    0.336389   -0.612673
H       0.538690    2.142834   -0.174577
H      -0.999740    1.742573   -0.951666
H      -0.904071    1.849435    0.817440
H       0.623071   -0.146312    0.843359
H      -2.076614   -0.569326   -0.475563
H      -1.099209   -1.848390    0.257810
H      -2.631122   -0.798194    1.741924
H       2.904595    0.118368   -3.330061
H       3.269641   -1.462945   -2.607657
H       1.682890   -1.183138   -3.380013
H       3.645323   -0.361185   -0.352265
H       3.298980    1.217268   -1.079734
H       2.355208    0.657020    0.306904
