15

O       0.139712    1.414573   -0.221512
C       0.031366    0.011082   -0.046012
C       0.643798   -0.538040    1.250611
C      -0.235367   -1.290498    1.937137
C      -1.514294   -1.316666    1.213061
C      -1.368526   -0.544179    0.078592
N      -2.544773   -0.568575   -0.572023
N      -3.472560   -1.314394    0.080272
C      -2.844417   -1.777204    1.167265
H      -0.224439    1.828726    0.569359
H       0.547448   -0.422921   -0.912509
H       1.667816   -0.320173    1.524392
H      -0.038015   -1.797733    2.873215
H      -2.812561   -0.100595   -1.421660
H      -3.383464   -2.415130    1.851954
