14

C       0.078621    1.363268    0.086124
N      -0.073566   -0.072513   -0.081616
C      -1.289295   -0.650677   -0.027344
N      -2.460136   -0.060008   -0.027762
C      -3.352318   -1.106285   -0.013836
C      -2.688657   -2.294752    0.003075
O      -1.326074   -1.999039   -0.004492
C      -3.088105   -3.638690    0.029156
N      -3.437733   -4.744702    0.050975
H       1.065795    1.656886   -0.275514
H      -0.683159    1.872319   -0.506425
H      -0.030324    1.678558    1.131398
H       0.710299   -0.671260    0.121213
H      -4.419468   -0.948526   -0.012403
