18

C      -0.082645    1.461372    0.238913
C      -0.005287   -0.054428    0.155874
O       1.033127   -0.684162    0.249842
N      -1.200211   -0.684866   -0.022986
C      -2.538793   -0.233611   -0.426974
C      -2.872484   -1.715546   -0.670338
C      -4.122531   -2.445893   -0.490057
O      -3.575013   -2.182198   -1.795239
C      -1.422775   -2.100439   -0.335442
H       0.898367    1.843893    0.518796
H      -0.367428    1.886979   -0.729858
H      -0.827337    1.786027    0.972445
H      -3.111169    0.272708    0.358663
H      -2.559957    0.372836   -1.340970
H      -4.099858   -3.489033   -0.178448
H      -5.037883   -1.905937   -0.252103
H      -0.842353   -2.458666   -1.192868
H      -1.274454   -2.779328    0.510151
