20

C      -0.069932    1.498297   -0.024533
C       0.080794   -0.006458   -0.049962
C       1.468787   -0.638002   -0.122910
C       0.664803   -0.721311    1.131370
O       1.054281   -0.012175    2.311190
C       0.478776   -1.040352    3.148756
C       0.137358   -1.920793    1.923193
C      -1.312021   -2.340037    1.729171
H       0.682179    1.950248    0.627750
H       0.039173    1.927149   -1.026497
H      -1.053591    1.789090    0.360319
H      -0.703368   -0.540629   -0.582731
H       1.610418   -1.534915   -0.718542
H       2.320478    0.035638   -0.108088
H       1.210817   -1.443205    3.857059
H      -0.395052   -0.671327    3.701996
H       0.799314   -2.788764    1.843459
H      -1.985168   -1.480020    1.806672
H      -1.465738   -2.799427    0.746732
H      -1.611000   -3.073931    2.485358
