17

O      -0.037022    1.409759    0.010970
C      -0.026019    0.019107   -0.042390
C       0.483190   -0.768696   -1.270115
C      -0.546515   -1.853072   -0.871583
C      -0.118792   -2.528856    0.494021
O       1.118247   -1.961130    0.983976
C       0.387365   -0.754528    1.286921
C      -0.978730   -1.495995    1.278094
C      -1.366201   -0.789871   -0.052964
H       0.872562    1.716691    0.105372
H       0.181091   -0.264355   -2.192396
H       1.538182   -1.050775   -1.307270
H      -0.985140   -2.502307   -1.627878
H      -0.151109   -3.615350    0.579884
H       0.818021   -0.167091    2.100502
H      -1.595094   -1.705747    2.149817
H      -2.331109   -0.380112   -0.339172
