18

O      -0.124996    1.402011   -0.071747
C      -0.075555    0.021473   -0.004007
C      -0.388862   -0.859535   -1.181439
C      -1.239295   -0.962096    0.064145
C      -0.495587   -1.793885    1.116046
C       0.656646   -0.731687    1.114155
C       2.107092   -1.174830    0.864581
C       2.639996   -1.987459    1.956173
N       3.038039   -2.629948    2.830619
H       0.469268    1.700832   -0.767909
H      -0.858019   -0.328893   -2.004184
H       0.253583   -1.683507   -1.486609
H      -2.302615   -0.761669    0.044841
H      -1.002648   -1.862737    2.079367
H      -0.210758   -2.801976    0.797206
H       0.614466   -0.137874    2.030748
H       2.178785   -1.753924   -0.063129
H       2.750130   -0.294950    0.741093
