16

O      -0.030634    1.399117    0.009980
C       0.042291    0.027004    0.004123
C      -0.861339   -0.804718    0.820837
C       0.651723   -0.962710    1.050524
C       1.269435   -1.731422   -0.087936
O       2.059120   -2.628922   -0.157707
C       0.636178   -0.801965   -1.132160
C       0.152993   -1.012128   -2.512787
N       1.393105   -0.250678   -2.256826
H       0.862831    1.756469   -0.059052
H      -1.352951   -0.282215    1.635951
H      -1.443566   -1.608102    0.378827
H       1.079752   -0.794062    2.030472
H       0.307935   -1.974562   -2.991983
H      -0.737824   -0.472670   -2.824778
H       1.189273    0.746746   -2.326586
