16

O       0.004164   -0.053711   -0.136433
C      -0.001335    1.152213   -0.085308
N      -1.105617    1.966396    0.038203
C      -0.800757    3.368157    0.008092
C       0.137867    3.944988    1.061601
C       0.724655    2.986770    2.092445
O       1.616069    2.119033    1.383180
C       1.223714    2.107978    0.007407
C       0.664658    3.501248   -0.284421
H      -2.009133    1.590471    0.276696
H      -1.535966    4.010078   -0.462909
H       0.053382    4.998181    1.302624
H       1.304037    3.516881    2.854043
H      -0.055665    2.399557    2.596625
H       2.069012    1.773353   -0.591735
H       1.082105    4.157815   -1.034893
