17

C       0.468005    1.407623   -0.238049
C      -0.091757    0.050581    0.167265
O      -0.011494   -0.880630   -0.934140
C       1.033919   -1.750366   -0.777019
N       1.340350   -2.657985   -1.598231
C       1.736983   -1.455829    0.527520
C       0.684093   -0.653068    1.304623
O       1.185631    0.307309    2.210225
H       1.529395    1.343123   -0.493980
H      -0.074993    1.782396   -1.109588
H       0.358976    2.119129    0.583425
H      -1.153624    0.145372    0.411388
H       0.710394   -2.636433   -2.402718
H       2.070078   -2.373571    1.013442
H       2.615559   -0.826917    0.344317
H      -0.000609   -1.346806    1.814220
H       1.601316   -0.156193    2.943345
