20

C       0.000321    1.502422    0.783627
C       1.153947    0.935879    0.038302
C       2.157311    0.097173    0.810857
C       1.289178   -0.845788    1.665534
C       1.926562   -2.158353    2.171894
O       1.779314   -1.769510    3.550967
C       1.160337   -0.525947    3.178790
C      -0.011607   -0.956409    0.838199
N      -0.160081    0.256827    0.017236
H       0.005611    1.459676    1.870358
H      -0.540056    2.351863    0.376432
H       1.473165    1.400055   -0.890391
H       2.761070   -0.487567    0.105578
H       2.850692    0.692602    1.413351
H       1.363289   -3.072734    1.940026
H       2.978343   -2.310374    1.895502
H       1.733882    0.342195    3.531060
H       0.132542   -0.450107    3.559876
H       0.059298   -1.808728    0.150941
H      -0.898924   -1.109252    1.461525
