18

C       0.058952    1.496409   -0.281304
C       1.299876    0.698189   -0.054822
C       2.168221    0.876723    1.185130
C       1.408273    0.616061    2.479225
O       0.281413    1.533835    2.648075
C      -0.627094    0.435452    2.603277
C       0.469209   -0.597893    2.482839
C      -0.484526   -0.377213    1.334297
N      -0.022195    0.068491    0.044170
H      -0.215531    2.212907    0.484143
H      -0.245336    1.748485   -1.294767
H       1.854725    0.375341   -0.934404
H       3.009000    0.172519    1.144545
H       2.602053    1.883218    1.210598
H       2.063564    0.674824    3.353092
H      -1.524953    0.496408    3.207473
H       0.644242   -1.542978    2.978206
H      -1.249027   -1.148114    1.254496
