18

C       0.013808    1.504415    0.392762
O       1.362401    1.639778   -0.111920
C       1.384527    0.259074   -0.550881
C      -0.047566    0.016732   -0.025166
C      -0.811626   -0.455483   -1.240851
C      -0.757425    0.226653   -2.563564
C       0.438274    1.148678   -2.754034
C       1.268767    0.039457   -2.069136
N       0.125346   -0.974176   -2.277113
H      -0.024435    1.683872    1.472944
H      -0.691110    2.175544   -0.111928
H       2.215321   -0.290440   -0.097484
H      -0.157634   -0.683567    0.803940
H      -1.673126   -1.098819   -1.088018
H      -1.596933    0.149093   -3.249492
H       0.689420    1.228115   -3.813761
H       0.440477    2.142533   -2.304437
H       2.190678   -0.270689   -2.558659
