11

N      -0.022437    1.379119    0.133857
C       0.034477    0.032440    0.038961
N      -1.011550   -0.766775    0.013999
O      -0.482523   -2.053400   -0.030842
N       0.853351   -2.058460   -0.038067
C       1.199939   -0.801175    0.001391
N       2.580125   -0.384379   -0.015075
O       3.449654   -1.232021    0.007790
O       2.757704    0.836271   -0.055861
H       0.827444    1.877685   -0.075936
H      -0.904861    1.826117   -0.052437
