25

C      -0.455748    0.998935    2.837791
C      -1.041612   -0.414362    2.696849
C      -1.957513   -0.766423    3.877895
C      -1.800618   -0.523786    1.389846
O      -1.039797   -0.473855    0.176391
C      -1.777281   -1.669072    0.461692
C      -0.989912   -2.951368    0.640824
C      -1.890468   -4.056199    1.211818
C      -0.366776   -3.367170   -0.700564
H       0.131980    1.089719    3.756904
H       0.191519    1.234942    1.988702
H      -1.252384    1.751555    2.875457
H      -0.207193   -1.123765    2.674491
H      -2.815349   -0.085312    3.926194
H      -2.346436   -1.786633    3.798693
H      -1.417533   -0.683968    4.826291
H      -2.696243    0.105569    1.360144
H      -2.657571   -1.792237   -0.177865
H      -0.173802   -2.762225    1.346655
H      -1.329828   -4.987565    1.338592
H      -2.305858   -3.777257    2.185474
H      -2.730165   -4.265431    0.538574
H       0.269044   -2.569611   -1.094567
H       0.241214   -4.270441   -0.587048
H      -1.143753   -3.579297   -1.444736
