16

C      -0.168190    1.574870   -0.014992
C      -0.000493    0.053316    0.005053
C      -1.283538   -0.597222   -0.217669
C      -2.383143   -1.044748   -0.407902
C       1.221551   -0.646763   -0.697366
C       2.188224   -0.099019    0.378265
C       0.920210   -0.656512    1.065818
O       1.000312   -1.826025    0.165650
H       0.768371    2.111254    0.145012
H      -0.583280    1.890250   -0.976740
H      -0.875079    1.881040    0.761758
H      -3.341053   -1.471800   -0.573830
H       1.379229   -0.822620   -1.761838
H       3.072962   -0.717629    0.526031
H       2.410744    0.966931    0.422251
H       0.715700   -0.844077    2.120278
