18

C       0.310388    1.638292   -0.244970
C       0.019783    0.176519    0.019553
C      -1.300624   -0.326759   -0.530596
N       1.179900   -0.703006   -0.025488
C       0.523741   -0.496994    1.285634
C       1.288334    0.225731    2.331540
O       2.197272    1.006631    2.150573
C       0.857453   -0.033160    3.783401
O      -0.026292   -0.783823    4.104960
H       1.278297    1.924358    0.165926
H       0.325681    1.817426   -1.325735
H      -0.467890    2.274879    0.189350
H      -1.319574   -0.219144   -1.621294
H      -1.463757   -1.381438   -0.287676
H      -2.140735    0.247925   -0.127548
H       0.921765   -1.623310   -0.376657
H      -0.110854   -1.284185    1.680997
H       1.461188    0.550424    4.510289
