17

C      -0.075762    1.449508    0.010609
N       0.027908   -0.000550    0.066405
C      -1.225790   -0.735978    0.040463
C      -1.154628   -2.209384    0.423290
O      -2.165488   -2.827996    0.691728
N       0.088286   -2.753843    0.442310
C       1.296404   -2.108547   -0.030781
C       1.256064   -0.583470   -0.027061
O       2.300264    0.037407   -0.119908
H       0.931487    1.862420    0.029360
H      -0.582634    1.769568   -0.908577
H      -0.647935    1.821412    0.867969
H      -1.928794   -0.273464    0.740766
H      -1.697036   -0.675921   -0.952819
H       0.116927   -3.740491    0.658274
H       2.141890   -2.390369    0.601904
H       1.550039   -2.418191   -1.055474
