18

C      -0.199276    1.458947   -0.012023
N       0.064111    0.028389   -0.012249
C       0.825350   -0.484225   -1.176201
C       1.859345   -1.392294   -0.497305
C       1.076435   -1.935485    0.710367
C       0.758022   -0.512248    1.178644
C       2.173568    0.085938    1.192578
O       2.668105    0.938461    1.869353
O       2.821696   -0.502991    0.130480
H       0.710536    2.082836   -0.023463
H      -0.799335    1.712423   -0.891224
H      -0.780019    1.722356    0.877357
H       0.176604   -1.030891   -1.871038
H       1.336410    0.314271   -1.728687
H       2.398974   -2.089775   -1.134566
H       0.184610   -2.503378    0.441400
H       1.707993   -2.499510    1.399125
H       0.195624   -0.357434    2.097029
