19

C      -0.537487    1.217463   -0.092194
N      -0.092885   -0.124509    0.243895
C       1.177626   -0.677281   -0.147959
C       2.347892    0.321509   -0.020220
C       2.035484    0.447506    1.506159
C       1.894212    1.797997    2.185185
O       3.198980    2.357863    2.281054
C       0.813048   -0.478257    1.310917
H       0.261105    1.957639   -0.232500
H      -1.110315    1.167095   -1.024408
H      -1.207353    1.578952    0.694366
H       1.189339   -1.588707   -0.736775
H       3.320631   -0.134163   -0.212145
H       2.274197    1.234108   -0.619068
H       2.799106   -0.106740    2.062572
H       1.223734    2.463146    1.624026
H       1.447864    1.652348    3.183497
H       3.123141    3.231976    2.674600
H       0.467907   -1.202746    2.042485
