15

O      -0.003387   -0.042692    0.004051
C      -0.011143    1.170636    0.010059
N      -1.125339    2.022952    0.029672
C      -0.710821    3.343804    0.030160
C       0.642165    3.358002    0.011215
N       1.083880    2.041770   -0.001517
C       1.127007    4.728271    0.011002
C       0.050081    5.545116    0.030319
C      -1.245346    4.738292    0.044407
H      -2.059921    1.654948    0.040907
H       2.025883    1.694032   -0.016021
H       2.164290    5.034755   -0.002146
H       0.063238    6.625412    0.035471
H      -1.870725    4.976693   -0.826093
H      -1.846043    4.968027    0.934402
