19

C       0.120232    1.331136    0.217912
O      -0.334127    0.061462   -0.192016
C       0.460422   -0.517191   -1.176480
C       1.823540   -1.237020   -0.819698
C       1.360559   -2.273987    0.192833
C       0.219158   -2.739863   -0.328612
C       0.065127   -1.952582   -1.630290
C       1.543173   -2.065906   -2.147410
O       1.747447   -1.416200   -3.376325
H       1.106210    1.277729    0.703790
H       0.191955    2.031520   -0.629134
H      -0.604577    1.719820    0.937203
H       0.590609    0.164667   -2.026069
H       2.758680   -0.700337   -0.659357
H       1.871503   -2.559077    1.101335
H      -0.452454   -3.502511    0.037501
H      -0.786695   -2.144507   -2.280838
H       1.955583   -3.081275   -2.139991
H       2.679599   -1.490070   -3.603703
