15

C      -0.033435    1.475257    0.048077
C       0.007946   -0.025554   -0.004678
C      -0.098701   -0.739982   -1.184360
N      -0.059255   -2.086487   -1.212092
C       0.085348   -2.716032   -0.071817
O       0.131085   -4.061758   -0.042237
C       0.195722   -1.995710    1.145473
O       0.343001   -2.680540    2.294517
N       0.156873   -0.685593    1.167016
H       0.888190    1.874058    0.484870
H      -0.156408    1.902701   -0.950009
H      -0.861479    1.819048    0.676869
H      -0.218890   -0.237592   -2.138768
H       0.039628   -4.352533   -0.960754
H       0.398960   -2.016218    2.996312
