18

C      -0.108919    1.450696    0.254487
C       0.018714   -0.055903    0.042394
O       0.775856   -0.636415    1.119106
C       2.123917   -0.671091    0.950550
N       2.712790   -1.157207    2.079787
O       2.711232   -0.304864   -0.041105
C      -1.332597   -0.735219   -0.003954
C      -1.619695   -2.031647    0.615529
O      -2.073130   -0.811522    1.212247
H       0.880148    1.913996    0.253300
H      -0.698716    1.898799   -0.551465
H      -0.607106    1.654463    1.205985
H       0.549036   -0.255863   -0.894101
H       2.146710   -1.589280    2.788975
H       3.685628   -1.399845    2.018096
H      -1.925614   -0.436332   -0.870751
H      -2.399920   -2.666052    0.197190
H      -0.831651   -2.545094    1.159558
