14

C      -0.092043    1.426397    0.041655
N      -0.056684   -0.008325   -0.125719
C       0.603404   -0.598861   -1.147177
N       1.245694    0.060241   -2.042433
C       0.490376   -2.114480   -1.101463
O      -0.132073   -2.682725   -0.227926
C       1.166838   -2.840862   -2.158115
C       1.712877   -3.485641   -3.015749
H       0.918415    1.834173    0.159090
H      -0.542215    1.913589   -0.830741
H      -0.680382    1.666369    0.929085
H      -0.526121   -0.622516    0.518628
H       1.665951   -0.580469   -2.714046
H       2.194451   -4.057274   -3.772304
