19

C       0.034691    1.524371   -0.158706
C      -0.032576    0.025658    0.060817
C      -1.217259   -0.643660   -0.610360
N       1.269178   -0.672825    0.030107
C       0.512775   -0.617982    1.290611
C       1.150818    0.132883    2.452270
C       1.990312   -0.734489    3.273033
C       2.665056   -1.472056    3.940315
H       0.945184    1.954195    0.261613
H       0.029353    1.749297   -1.231248
H      -0.830049    2.025966    0.290454
H      -1.173578   -0.507512   -1.697577
H      -1.240041   -1.718447   -0.403067
H      -2.164178   -0.214695   -0.263727
H       1.178829   -1.589161   -0.401765
H       0.007465   -1.530180    1.605053
H       1.751414    0.961708    2.065237
H       0.362838    0.574254    3.077310
H       3.271997   -2.112531    4.530533
