16

N      -0.007243    1.335672    0.027676
C      -0.025642    0.044706    0.032273
C       1.186128   -0.808520    0.027187
N       1.231718   -2.110564    0.030976
N       0.026272   -2.673959    0.040614
C      -0.494120   -4.040379    0.049096
C      -1.921054   -3.371109    0.056317
C      -1.184003   -2.039323    0.046769
C      -1.286465   -0.696824    0.043198
H       0.957473    1.674675    0.020063
H       2.153362   -0.311675    0.019478
H      -0.245688   -4.617644   -0.845986
H      -0.233937   -4.610826    0.945237
H      -2.524379   -3.573962   -0.829960
H      -2.512007   -3.567739    0.952309
H      -2.226132   -0.160981    0.047986
