19

C      -0.083172    1.474735   -0.112842
C       0.150717   -0.013158    0.033011
O       1.241952   -0.531299   -0.790270
C       1.821477   -1.214615    0.337210
C       2.416595   -2.558849    0.079581
O       3.616572   -2.485922   -0.678051
C       2.251604   -0.194530    1.362921
C       0.806307   -0.599573    1.287062
O       0.144525   -1.045840    2.410774
H       0.808217    2.046945    0.156276
H      -0.350735    1.720196   -1.145359
H      -0.908034    1.787159    0.536309
H      -0.767433   -0.569736   -0.211310
H       2.677904   -3.032294    1.031197
H       1.672511   -3.196109   -0.423662
H       3.402983   -2.025539   -1.497090
H       2.759147   -0.616119    2.225428
H       2.597073    0.787960    1.054028
H      -0.532856   -1.675659    2.137995
