20

O      -0.088438    1.390609    0.413628
N       0.058501   -0.010876    0.368391
C      -1.031028   -0.570261    0.047961
C      -2.432445   -0.113434   -0.308949
C      -2.770907   -1.601756   -0.646513
C      -2.826157   -2.005540   -2.133230
C      -1.847801   -3.190542   -2.243410
C      -0.667768   -2.791311   -1.332564
C      -1.340928   -2.042395   -0.156124
H       0.796962    1.677576    0.661053
H      -2.977995    0.303466    0.543560
H      -2.500342    0.601794   -1.134466
H      -3.607982   -2.014095   -0.080276
H      -3.837052   -2.252962   -2.469495
H      -2.472294   -1.179100   -2.762279
H      -2.323889   -4.100412   -1.856761
H      -1.540266   -3.399474   -3.272570
H      -0.078935   -3.650232   -1.000761
H       0.014160   -2.119755   -1.864140
H      -1.322824   -2.622175    0.770736
