17

C       0.073774    1.474510    0.027699
C      -0.017146   -0.013694   -0.038072
C      -0.164315   -0.786352   -1.119198
C      -0.098178   -2.231731   -0.761871
O       1.170329   -2.614521   -0.171119
C       0.086314   -2.306527    0.693951
C       0.082917   -0.869284    1.238433
C       1.229673   -0.549904    2.081372
C       2.170264   -0.277080    2.777791
H       1.032242    1.783333    0.460420
H      -0.021897    1.924175   -0.963673
H      -0.709263    1.891654    0.673939
H      -0.274578   -0.424343   -2.134391
H      -0.582901   -3.004480   -1.350067
H      -0.271489   -3.118814    1.320177
H      -0.833353   -0.727019    1.832583
H       3.007212   -0.048727    3.390044
