17

C      -0.219388    1.133746   -0.275954
O      -0.116769   -0.244322    0.112495
C      -1.286059   -0.885903    0.270826
O      -2.370702   -0.391945    0.121767
C      -1.020175   -2.329276    0.681532
O      -2.232361   -3.052297    0.809981
C      -2.803721   -3.435329   -0.363711
C      -4.142914   -4.075920   -0.112024
O      -2.283271   -3.269884   -1.435334
H       0.805298    1.494845   -0.359605
H      -0.737426    1.222134   -1.233784
H      -0.767768    1.705023    0.477053
H      -0.355771   -2.791708   -0.052400
H      -0.540976   -2.346472    1.663124
H      -4.851342   -3.304197    0.204655
H      -4.500423   -4.543936   -1.028323
H      -4.074411   -4.810475    0.693814
