19

C      -0.231949    1.513626   -0.018549
C       0.060008    0.022898    0.064551
C       1.224000   -0.640564   -0.758252
C       2.473892    0.133335   -0.271065
C       2.184458    0.190794    1.267814
C       0.849423   -0.574499    1.312131
O       0.298010   -0.765093    2.563741
C       1.117703   -1.720366    0.329451
O       1.004990   -2.912006    0.388504
H       0.662829    2.131934    0.084311
H      -0.699077    1.763092   -0.976770
H      -0.927204    1.801985    0.776730
H      -0.865180   -0.545579   -0.079032
H       1.127788   -0.874350   -1.815470
H       3.398344   -0.401471   -0.502491
H       2.542261    1.125016   -0.723958
H       2.945542   -0.314384    1.867293
H       2.079179    1.209145    1.649307
H      -0.160284   -1.614445    2.558247
