17

O      -0.608462    0.537822   -1.872714
C      -0.011100   -0.079661   -0.748435
C      -1.020221   -0.271714    0.356103
O      -1.960802   -1.342888    0.198918
C      -1.048237   -1.414111    1.294653
C      -0.038847   -2.527287    1.299663
O       0.792687   -2.603601    2.179769
C      -0.132541   -3.617176    0.244831
O       0.875714   -4.565732    0.414406
H      -1.305342   -0.048684   -2.187730
H       0.465303   -1.033752   -1.010865
H       0.775403    0.600159   -0.404097
H      -1.475966    0.654862    0.707808
H      -1.478102   -1.230384    2.279883
H      -1.140662   -4.060180    0.332516
H      -0.096037   -3.172362   -0.759491
H       1.337060   -4.310297    1.229258
