17

C       0.031470    1.615414    0.079254
O       1.381373    1.829994   -0.314842
C       2.000287    0.599780   -0.687218
O       2.208497    0.530799   -2.096840
C       3.591200    0.652641   -2.408099
C       4.294666    0.598882   -1.082389
C       3.394824    0.542125   -0.109953
C       0.998065   -0.451803   -0.273680
C      -0.125104    0.122877    0.134740
H      -0.135251    2.097365    1.052823
H      -0.663866    2.076111   -0.639364
H       3.878835   -0.171184   -3.076297
H       3.790484    1.594493   -2.942277
H       5.372106    0.625130   -0.979656
H       3.566359    0.517111    0.957447
H       1.208769   -1.507542   -0.375720
H      -1.038266   -0.367851    0.446893
