18

C       0.065005    1.566442   -0.050112
C       0.234870    0.046388   -0.079587
C       0.545456   -0.541145    1.311310
C       0.681270   -2.038074    1.278781
C       1.918899   -2.690250    1.186827
N       2.003940   -4.010176    1.128680
C       0.825138   -4.642242    1.163654
N      -0.377661   -4.080056    1.255850
N      -0.446807   -2.753340    1.315727
H       0.974533    2.062463    0.306669
H      -0.158130    1.957017   -1.047424
H      -0.754893    1.859255    0.614592
H      -0.677025   -0.428394   -0.459059
H       1.038903   -0.226196   -0.775049
H       1.467900   -0.096398    1.703329
H      -0.265224   -0.282935    2.000386
H       2.849266   -2.125274    1.166712
H       0.837474   -5.727175    1.116982
