17

C      -0.076788    1.446346   -0.143130
C      -0.025784   -0.092829    0.062578
C       0.720580   -0.353697    1.382803
O       0.277801   -0.911748    2.346067
C      -1.372127   -0.649693    0.089701
C      -2.490623   -1.085703    0.117498
C       0.836146   -0.691604   -1.061500
C       0.540144   -1.959755   -1.733281
O       0.274579   -0.698077   -2.363935
H       0.930338    1.874298   -0.098261
H      -0.502761    1.661697   -1.125077
H      -0.694662    1.917524    0.624439
H       1.758070    0.054923    1.372209
H      -3.478733   -1.474302    0.148225
H       1.874761   -0.355333   -1.024601
H       1.353286   -2.535604   -2.171633
H      -0.343483   -2.520650   -1.440758
