15

O      -0.002195    0.019154   -0.484419
C       0.016680    1.185622   -0.210485
O      -1.113402    2.015771   -0.143223
C      -0.649654    3.239053    0.193714
N       0.621855    3.311493    0.352575
N       1.050933    2.025933    0.100894
C       2.431886    1.645925    0.166145
C       3.501743    2.603122   -0.274183
C       3.338470    2.262349    1.192136
H      -1.355355    4.046171    0.302958
H       2.524494    0.593040   -0.068403
H       4.347752    2.200970   -0.819634
H       3.178121    3.588826   -0.587098
H       2.908812    3.027672    1.827709
H       4.070439    1.622575    1.671587
