15

C      -0.060299    1.247091    0.274474
C      -0.179144   -0.246613    0.060472
O       0.641616   -1.043395    0.436949
C      -1.447475   -0.699846   -0.674903
O      -1.494511   -2.114468   -0.800945
C      -1.861173   -2.781962    0.313065
O      -2.239542   -2.283929    1.335360
C      -1.741978   -4.289139    0.048529
O      -2.080797   -5.100671    0.861087
H       0.935149    1.486159    0.649411
H      -0.256589    1.799996   -0.650383
H      -0.807893    1.569806    1.008638
H      -2.330375   -0.329364   -0.143347
H      -1.449707   -0.299244   -1.692631
H      -1.320961   -4.549748   -0.942404
