20

C       0.029286    1.499466   -0.115453
C       0.026743   -0.006855    0.081809
O       1.060090   -0.608751    0.267731
C      -1.328874   -0.746177    0.040802
C      -2.085818   -0.438546    1.353029
C      -2.166084   -0.299059   -1.172734
C      -1.016077   -2.264919   -0.044934
C      -2.217868   -3.093804   -0.039876
N      -3.179976   -3.734851   -0.036006
H       0.991054    1.896833    0.210538
H      -0.100584    1.727384   -1.179541
H      -0.784312    1.994797    0.420460
H      -2.331275    0.623633    1.433671
H      -3.023772   -1.000712    1.382850
H      -1.492340   -0.720063    2.228630
H      -1.630313   -0.465788   -2.113382
H      -3.099917   -0.867222   -1.213695
H      -2.424878    0.760920   -1.111396
H      -0.445263   -2.477048   -0.954747
H      -0.372204   -2.555753    0.789180
