20

C      -0.122924    1.492738   -0.077544
C      -0.114457    0.001557    0.199729
O      -1.378760   -0.529373   -0.215778
C      -1.554344   -1.847835   -0.027938
N      -2.630724   -2.407242   -0.372216
C      -2.775745   -3.807664   -0.184123
C      -4.135066   -4.295027    0.310588
C      -3.760690   -4.451799   -1.138496
O      -4.354183   -3.656985   -2.111956
H       0.829670    1.935344    0.227408
H      -0.271448    1.684811   -1.143412
H      -0.928373    1.982208    0.476276
H       0.693493   -0.495499   -0.353840
H       0.035056   -0.197535    1.269495
H      -0.705363   -2.368562    0.438145
H      -1.893047   -4.371113    0.122579
H      -4.153161   -5.169567    0.952270
H      -4.862161   -3.526793    0.547968
H      -3.536351   -5.448225   -1.507708
H      -4.051438   -2.753785   -1.934233
