16

O       0.022567    0.911298   -0.869407
C      -0.060294   -0.197721   -0.025960
C       0.014577   -0.036043    1.519330
C      -1.100892   -1.114763    1.637565
C      -1.450699   -0.886223    0.152758
O      -2.487565    0.099913    0.055140
C      -3.154641    0.191480   -1.115287
O      -3.952673    1.052435   -1.331484
H      -0.637892    1.550942   -0.577643
H       0.676960   -0.921399   -0.385965
H       0.974496   -0.228354    2.001561
H      -0.346890    0.948799    1.828390
H      -0.705557   -2.119431    1.803913
H      -1.911722   -0.927039    2.342249
H      -1.695891   -1.747836   -0.475780
H      -2.892321   -0.616164   -1.823986
