19

C      -0.124572    1.510860   -0.066019
C       0.006648   -0.017757   -0.002464
C       0.783819   -0.478989    1.230716
N      -1.295976   -0.696589   -0.011091
C      -2.089163   -0.731138   -1.120381
C      -3.416626   -1.031628   -1.307825
C      -3.562216   -0.948916   -2.711699
N      -2.457294   -0.627064   -3.337368
O      -1.499987   -0.483677   -2.299170
H       0.863804    1.980291   -0.099705
H      -0.676226    1.815789   -0.958697
H      -0.650770    1.893799    0.816124
H       0.532512   -0.359488   -0.899077
H       0.271611   -0.175551    2.152435
H       0.893124   -1.566559    1.241452
H       1.779345   -0.027292    1.245077
H      -1.806517   -0.657546    0.858842
H      -4.155282   -1.276248   -0.564299
H      -4.454856   -1.115457   -3.299949
