16

O      -0.048743    0.086791    0.400329
C      -0.059571    1.251775    0.105392
C      -1.309669    2.079042   -0.221756
O      -0.886292    3.342226   -0.719978
C       0.491516    3.535665   -0.468940
C       0.931282    4.165659    0.872400
N       0.354580    3.327190    1.950016
C       1.594141    2.890057    1.269897
C       1.134911    2.192847   -0.029608
H      -1.920953    1.575224   -0.979831
H      -1.900194    2.186601    0.696787
H       0.946141    4.029141   -1.331217
H       1.215811    5.193279    1.060964
H       0.619978    3.750289    2.837908
H       2.509134    2.709842    1.817757
H       1.929244    1.784237   -0.653315
