25

C      -0.203134    1.552919    0.023167
C       0.043923    0.039502   -0.022916
C       0.755530   -0.513558    1.196686
C       0.119646   -0.487071    2.626247
C       1.151990   -1.616406    2.895875
C       0.902793   -2.050230    1.424697
C       2.488045   -0.842173    2.809410
C       3.748976   -1.703619    2.773248
C       2.195466   -0.032394    1.499371
H       0.735319    2.114626    0.066847
H      -0.747521    1.888097   -0.865062
H      -0.796964    1.830376    0.900835
H      -0.917742   -0.478087   -0.135939
H       0.628149   -0.207936   -0.920377
H       0.200405    0.432340    3.215607
H      -0.913744   -0.844787    2.626899
H       1.037431   -2.312855    3.728187
H      -0.046883   -2.577730    1.300455
H       1.693903   -2.581405    0.886632
H       2.564474   -0.159091    3.663862
H       3.729230   -2.420567    1.945560
H       4.643590   -1.083679    2.648326
H       3.866589   -2.271722    3.702943
H       2.886815   -0.292152    0.689380
H       2.255662    1.048808    1.653729
