18

C      -0.098498    1.544445    0.021020
N       0.124184    0.102244   -0.041791
C       0.627431   -0.582772   -1.191835
C       1.441663   -0.499142    0.114655
C       2.498438    0.234361   -0.672801
O       3.667145    0.457228   -0.483540
C       1.667976    0.241415   -1.979664
C       2.463425   -0.484789   -3.073207
O       3.591657    0.268094   -3.459465
H       0.652649    2.161271   -0.487789
H      -1.077896    1.758932   -0.416530
H      -0.124765    1.836347    1.074121
H       0.102019   -1.458206   -1.558154
H       1.603139   -1.218519    0.910036
H       1.328620    1.208708   -2.358187
H       2.742046   -1.492397   -2.720834
H       1.844015   -0.613595   -3.967259
H       4.102710    0.434237   -2.655342
