13

N       0.020054    1.295886    0.022307
C       0.023604   -0.054385   -0.023923
O       1.052614   -0.732667   -0.080436
C      -1.273975   -0.732355   -0.004997
N      -2.492281   -0.180776    0.053287
N      -3.288351   -1.227995    0.043290
N      -2.716430   -2.440064   -0.016436
C      -1.421525   -2.139530   -0.048199
O      -0.454157   -3.045937   -0.110476
H       0.898069    1.786882    0.010179
H      -0.844766    1.807498    0.067342
H      -4.290142   -1.131335    0.078991
H       0.375920   -2.521848   -0.119581
