20

C       0.433372    1.375215    0.088854
C      -0.007292   -0.041501   -0.077982
C      -0.583366   -0.692489   -1.146068
C      -0.796519   -2.048757   -0.768678
C      -0.344101   -2.203857    0.523188
N       0.128984   -0.971322    0.927399
C      -0.331694   -3.367698    1.433089
C      -0.142942   -4.757237    0.880025
C       0.955137   -4.132891    1.698335
H       1.509164    1.456701    0.291604
H       0.228563    1.936715   -0.825620
H      -0.090699    1.880136    0.910583
H      -0.825414   -0.238375   -2.095475
H      -1.244606   -2.825880   -1.369055
H       0.547491   -0.793381    1.824581
H      -1.002244   -3.297909    2.288412
H      -0.721903   -5.561643    1.319119
H       0.018912   -4.850797   -0.187364
H       1.846876   -3.805283    1.175876
H       1.129066   -4.506668    2.701532
