17

O      -0.066250   -0.019620    0.029581
C      -0.003959    1.191777    0.004198
C       1.236299    1.954408   -0.017516
C       1.371809    3.291256   -0.011838
C       2.875258    3.597493    0.001668
C       3.352014    2.420163   -0.908561
C       2.656849    1.357777   -0.002508
C       3.295420    1.751570    1.342572
C       3.423014    3.077696    1.349926
H      -0.926986    1.813934   -0.009450
H       0.582739    4.032376    0.020243
H       3.158908    4.612404   -0.273093
H       2.941231    2.460965   -1.921546
H       4.439709    2.320233   -0.937834
H       2.717234    0.308996   -0.283628
H       3.532233    1.050391    2.130853
H       3.781245    3.717821    2.144276
