21

C      -0.107346    1.396542   -0.048490
C       0.079290   -0.087426   -0.001292
C       0.746996   -1.038356   -1.026673
C       0.020570   -1.892256    0.046609
C       0.615791   -0.979087    1.150864
O      -1.132651   -0.946338   -0.049824
C      -0.254811   -3.346823    0.054680
C       0.695111   -4.283204    0.766210
C      -0.678927   -4.038278    1.327313
H       0.861482    1.903894   -0.002319
H      -0.608164    1.690180   -0.976069
H      -0.715775    1.734044    0.796103
H       0.284209   -1.048749   -2.015148
H       1.839411   -1.078635   -1.063742
H       1.695917   -1.008550    1.321324
H       0.037252   -0.927507    2.074915
H      -0.697969   -3.712662   -0.867117
H       0.906967   -5.239202    0.301160
H       1.539755   -3.843242    1.285574
H      -0.761882   -3.435441    2.224545
H      -1.419099   -4.826282    1.248848
