19

C      -1.560177   -0.450569   -0.393921
O      -0.184334   -0.158220   -0.163074
C       0.704397   -0.694335   -1.099837
C       0.634813   -0.020130   -2.454957
O       0.842865    1.374283   -2.336958
C       2.024270   -1.092316   -0.535745
C       1.062170   -2.179328   -1.023648
C       0.434741   -3.054891   -0.079658
C      -0.081704   -3.814295    0.697958
H      -1.938423    0.037752   -1.301525
H      -1.729215   -1.529759   -0.465072
H      -2.104205   -0.057082    0.467235
H       1.418097   -0.415467   -3.109672
H      -0.331705   -0.239423   -2.937346
H       0.373355    1.649120   -1.540091
H       2.919364   -0.906711   -1.118106
H       2.134837   -1.005352    0.538156
H       1.312647   -2.643441   -1.974333
H      -0.537444   -4.477514    1.390440
