17

C      -0.019485    1.458341    0.014335
C      -0.000407   -0.035660   -0.017444
C      -0.037083   -0.831769   -1.107356
C       0.001541   -2.221354   -0.671677
N      -0.006336   -3.422192   -1.234636
N       0.052477   -4.250622   -0.159459
C       0.096216   -3.601272    1.045324
C       0.064202   -2.265117    0.742537
C       0.067744   -0.862478    1.272746
H       0.878552    1.861316    0.500643
H      -0.073697    1.877783   -0.993801
H      -0.877316    1.837154    0.585209
H      -0.087001   -0.494395   -2.134573
H       0.059599   -5.243662   -0.315335
H       0.144556   -4.153504    1.970817
H       0.968253   -0.614395    1.850510
H      -0.785497   -0.638988    1.927195
