21

C       0.043486    1.565792    0.097705
C      -0.037212    0.063144    0.020017
C      -1.215029   -0.561634    0.138013
C      -1.534355   -2.007793    0.078678
C      -0.931655   -2.967052   -0.920426
C      -0.565587   -3.105908    0.540672
C       0.785769   -2.800167    1.060685
C       1.584107   -1.774366    0.755484
C       1.298178   -0.636350   -0.201803
H       0.687101    1.885459    0.928143
H       0.487807    1.985839   -0.815030
H      -0.941088    2.021120    0.234953
H      -2.086267    0.068723    0.308323
H      -2.569938   -2.217829    0.327033
H      -1.579130   -3.720755   -1.354955
H      -0.173909   -2.589094   -1.594985
H      -1.049275   -3.931309    1.053055
H       1.155771   -3.515573    1.792236
H       2.552021   -1.733971    1.248781
H       1.379917   -0.974209   -1.245830
H       2.094106    0.107224   -0.092154
