18

O      -0.350618    0.350035    1.327466
C      -0.031477    1.224427    0.491944
O       1.063147    1.637692    0.092531
C      -1.257271    2.046819   -0.101287
C      -2.613861    1.628874    0.496533
N      -2.581117    2.844794    1.411283
H      -3.449347    3.356638    1.547655
C      -1.653332    2.803869    2.637548
C      -0.597397    3.659967    1.892947
C      -1.399542    3.432804    0.598272
H      -1.193832    2.097928   -1.186146
H      -3.493046    1.706450   -0.147399
H      -2.567581    0.690502    1.050292
H      -2.143306    3.241109    3.507203
H      -1.339902    1.772543    2.802596
H      -0.588581    4.703823    2.213432
H       0.413636    3.257634    1.861513
H      -1.647733    4.292450   -0.024991
