23

C      -0.117710    1.368279   -0.005700
O      -0.004182   -0.033131   -0.018470
C       0.654432   -0.539797    1.123131
C       0.707951   -2.057929    1.011928
C       1.381555   -2.722931    2.216412
O       0.730647   -2.370727    3.441220
C       1.482850   -4.242114    2.051976
C       2.211704   -4.921285    3.204481
O       2.219976   -6.318498    2.947085
H       0.868486    1.859900    0.012957
H      -0.640910    1.664363   -0.918484
H      -0.691480    1.725828    0.864561
H       1.676217   -0.125741    1.192931
H       0.126458   -0.244588    2.042934
H      -0.315394   -2.442760    0.903803
H       1.241741   -2.331046    0.094453
H       2.393351   -2.309860    2.329840
H      -0.170490   -2.711593    3.396904
H       0.474939   -4.671693    1.968095
H       2.000072   -4.478186    1.114674
H       3.237501   -4.522960    3.277631
H       1.703523   -4.685271    4.149644
H       2.634825   -6.757459    3.695157
