18

C      -0.035718    1.477800    0.061949
C      -0.000448   -0.014777   -0.069819
N       0.001081   -0.595689   -1.205086
C       0.009319   -2.073225   -1.164022
C       0.908303   -2.538628   -0.001924
C       0.002547   -2.073268    1.141349
O       0.017878   -0.612346    1.158344
C      -1.366859   -2.524995    0.666611
C      -1.364619   -2.521165   -0.669303
H       0.821824    1.830930    0.643462
H      -0.022417    1.930482   -0.928859
H      -0.939573    1.788009    0.596836
H       0.290770   -2.452020   -2.147465
H       1.023181   -3.624891    0.015541
H       1.891202   -2.061283    0.003261
H       0.294636   -2.368522    2.148832
H      -2.213375   -2.684150    1.322556
H      -2.213557   -2.685075   -1.321928
