20

C      -0.036114    1.489886   -0.037878
C      -0.152992   -0.021563   -0.106722
O       0.809228   -0.497210   -1.045432
C       0.836469   -1.892654   -1.200403
C      -0.398372   -2.383557   -1.856492
N      -1.385994   -2.715103   -2.355873
C       2.078868   -2.264670   -2.031708
C       3.361426   -1.752896   -1.383283
O       2.045474   -3.681174   -2.110805
H       0.967428    1.787141    0.279336
H      -0.235217    1.934771   -1.016587
H      -0.759670    1.889667    0.678384
H       0.038458   -0.477518    0.877609
H      -1.162299   -0.321904   -0.421551
H       0.916884   -2.402547   -0.225991
H       1.957067   -1.810051   -3.025711
H       3.493278   -2.204818   -0.394945
H       4.226037   -2.021845   -1.999099
H       3.335633   -0.666362   -1.278279
H       2.690143   -3.964539   -2.765483
