25

C      -0.004751    1.594944   -0.030287
C      -0.021787    0.059341   -0.029712
C       0.714166   -0.468393   -1.274602
C       0.666934   -1.982004   -1.523202
C       1.354184   -2.839967   -0.443730
C       0.587777   -2.944544    0.853046
C       0.227386   -1.918544    1.628119
C      -0.554448   -2.128090    2.898783
C       0.571097   -0.478109    1.294602
H       1.020419    1.976266    0.052516
H      -0.433060    1.996875   -0.954600
H      -0.577587    2.001126    0.809946
H      -1.069206   -0.269458   -0.084966
H       0.303051    0.038411   -2.157270
H       1.766864   -0.152862   -1.212241
H      -0.375410   -2.308607   -1.628657
H       1.152567   -2.179670   -2.487218
H       1.511862   -3.847361   -0.842793
H       2.359860   -2.431275   -0.260033
H       0.300989   -3.947292    1.164244
H      -0.771849   -3.185004    3.075440
H      -0.006474   -1.742290    3.768892
H      -1.508019   -1.583615    2.871658
H       1.663855   -0.352843    1.258588
H       0.226665    0.163253    2.113756
