20

O      -0.214550    1.578422   -0.396035
C      -0.020454    0.242151    0.038567
C      -1.355937   -0.480991   -0.080160
C      -1.266801   -1.950000    0.333326
N      -2.595404   -2.561079    0.244642
C      -2.936472   -3.303489   -0.939331
C      -2.773050   -4.015323    0.379937
C      -1.631362   -4.954081    0.527563
O      -1.696919   -5.985025    1.151623
H       0.620491    2.047468   -0.310867
H       0.739957   -0.269987   -0.574725
H       0.330477    0.208122    1.083263
H      -2.100227    0.027170    0.540945
H      -1.703161   -0.407157   -1.117385
H      -0.515746   -2.459966   -0.291304
H      -0.932275   -2.030631    1.374508
H      -3.937856   -3.168497   -1.338841
H      -2.159719   -3.467009   -1.687887
H      -3.657244   -4.314197    0.936919
H      -0.694345   -4.656009    0.008239
