13

O      -0.399317    0.243105    0.615134
C      -0.123384    1.285240    0.127252
O      -0.996123    2.265805   -0.333468
C       0.091589    3.121691   -0.769038
C       0.592795    4.052125    0.363980
O       1.502668    3.003580    0.833652
C       1.124546    2.118829   -0.238421
C       1.295510    5.245117   -0.062241
C       1.864629    6.232187   -0.443161
H      -0.035762    3.490526   -1.782312
H      -0.174566    4.278307    1.111988
H       1.963808    1.654197   -0.754311
H       2.369175    7.110177   -0.765222
