19

C       0.095983    1.403996   -0.359536
C       0.088540   -0.045106    0.050334
O       1.341864   -0.746994    0.136570
C       0.572940   -0.577304    1.334065
C       1.194382    0.218929    2.463255
C       2.124588   -0.630002    3.397649
C       3.386675    0.066047    2.807846
C       2.455126    1.058927    2.113064
O       2.618653    2.131278    1.608792
H       0.834898    1.988560    0.189483
H       0.310139    1.486820   -1.430415
H      -0.896823    1.835638   -0.188288
H      -0.686692   -0.642491   -0.435860
H       0.105015   -1.501337    1.685026
H       0.420704    0.796267    2.981317
H       1.971919   -0.414674    4.456632
H       2.068620   -1.708778    3.243412
H       4.121116    0.494433    3.493792
H       3.909111   -0.551633    2.070005
