20

C      -0.142867    0.935504   -0.524643
C       1.043360    1.236872    0.371468
C       0.470553   -0.141017    0.335393
O      -0.204112   -0.561773    1.483010
C      -1.207805   -1.518583    1.226744
C      -0.811609   -3.009991    1.015068
N      -1.666208   -3.448422    2.175929
C      -1.088747   -2.773657    3.349112
C      -1.958515   -1.976894    2.462106
H      -1.104643    1.325897   -0.210970
H       0.006066    0.896385   -1.598083
H       2.013967    1.407245   -0.080209
H       0.848913    1.813998    1.268108
H       1.043107   -0.923692   -0.163012
H      -1.875908   -1.162605    0.432882
H      -1.181707   -3.443657    0.084156
H       0.250195   -3.248463    1.136969
H      -1.520222   -3.111052    4.286325
H      -0.020204   -2.574882    3.378455
H      -2.944222   -1.636334    2.760584
