21

C      -0.022494    1.482269    0.052001
C       0.023736   -0.044752   -0.027253
C       0.749495   -0.551049   -1.260288
O       2.093888   -0.123221   -1.204091
C       2.832716   -0.550893   -2.345307
C       2.781651   -2.079864   -2.441464
O       3.489411   -2.677152   -1.370228
C       1.309616   -2.507590   -2.429801
O       0.663881   -1.959227   -1.283615
H       0.986890    1.900626    0.063996
H      -0.553785    1.909737   -0.805707
H      -0.540678    1.807374    0.958487
H       0.531079   -0.462899    0.849000
H      -0.986240   -0.466675   -0.045982
H       0.291433   -0.152370   -2.188253
H       2.426278   -0.089550   -3.260386
H       3.859967   -0.209052   -2.200631
H       3.265809   -2.416505   -3.364853
H       3.053413   -2.376591   -0.563373
H       0.801573   -2.177380   -3.350950
H       1.226052   -3.593507   -2.347646
