20

C       0.083061    1.521778   -0.143518
C      -0.049818    0.035538    0.109658
C      -1.145067   -0.644774   -0.686369
O       1.187474   -0.698697    0.156898
C       0.410584   -0.597210    1.361723
C       1.038071    0.107821    2.538550
C       2.164165   -0.719344    3.152905
O       2.659899   -0.005114    4.274892
H       0.935062    1.951032    0.384710
H       0.224946    1.705695   -1.214211
H      -0.824930    2.050451    0.166548
H      -0.974894   -0.511587   -1.760434
H      -1.171800   -1.716644   -0.475806
H      -2.124790   -0.216568   -0.447761
H      -0.082706   -1.536656    1.628809
H       1.441190    1.081886    2.251504
H       0.272553    0.283812    3.304642
H       1.781241   -1.710585    3.447654
H       2.946451   -0.880766    2.396517
H       3.406603   -0.492420    4.634622
