18

C       1.161025    0.929549    0.015018
N       0.313052    0.115464   -0.868378
C      -0.252905    0.652189    0.381461
C      -0.610750   -0.348891    1.417157
C       0.193547   -1.645396    1.706977
C      -1.082595   -2.129408    2.393062
C      -1.699553   -0.854983    2.997695
O      -0.804640    0.228182    2.749714
C      -1.951023   -1.182600    1.570435
H       1.962175    0.384658    0.504907
H       1.415138    1.942935   -0.283199
H      -0.007295    0.670648   -1.656883
H      -0.948956    1.485560    0.311796
H       0.395173   -2.196627    0.786883
H       1.103691   -1.523950    2.303577
H      -1.329180   -3.122725    2.745176
H      -2.340515   -0.821161    3.868434
H      -2.834634   -1.319859    0.963187
