15

C       0.131510    1.551725    0.027086
C      -0.095084    0.035669   -0.081542
C       0.623077   -0.564387   -1.245368
N      -0.000629   -1.162120   -2.230282
O       1.025038   -1.559629   -3.088000
C       2.172100   -1.149459   -2.515207
N       1.993437   -0.531572   -1.382605
C       3.385091   -1.427034   -3.182177
C       4.411204   -1.668927   -3.758787
H       1.197677    1.778290    0.108470
H      -0.261315    2.070517   -0.852355
H      -0.374724    1.948431    0.911287
H       0.264237   -0.455141    0.830273
H      -1.159204   -0.194345   -0.180849
H       5.321911   -1.880383   -4.264288
