21

C      -0.133523    1.594291    0.074202
C       0.058781    0.088828   -0.013711
C       0.801027   -0.589028   -1.205874
C       2.130409    0.141207   -1.529621
C       3.005443   -0.307491   -0.342145
C       2.798814   -1.831065   -0.347240
C       1.287454   -1.708775   -0.198224
C       1.099717   -0.608140    0.895468
O       2.353652    0.095692    0.876344
H       0.825849    2.113842    0.133551
H      -0.683582    1.979021   -0.791940
H      -0.703783    1.858105    0.971899
H      -0.903346   -0.421802    0.120539
H       0.217490   -0.864702   -2.085696
H       2.560236   -0.208957   -2.474328
H       2.023323    1.226483   -1.592200
H       4.028141    0.070181   -0.322440
H       3.115322   -2.308500   -1.278652
H       3.283067   -2.320610    0.501899
H       0.677853   -2.605611   -0.111155
H       0.852809   -0.847188    1.932639
