19

C       0.008970    1.545213    0.120584
C       0.018903    0.021489    0.001327
O       0.777705   -0.599847    1.034715
C      -1.391093   -0.531267   -0.063235
C      -2.145709   -1.053294    1.154254
C      -1.941959   -1.983537    0.011536
C      -2.989761   -1.694244   -1.074436
C      -2.370824   -0.275558   -1.171492
O      -2.472757    0.608575   -1.978454
H       1.031693    1.932699    0.120269
H      -0.544807    1.984504   -0.713527
H      -0.483908    1.855874    1.050681
H       0.533128   -0.254853   -0.927744
H       0.608406   -0.117192    1.850803
H      -1.498742   -1.216865    2.009550
H      -3.138377   -0.683162    1.397106
H      -1.343576   -2.881196    0.087746
H      -2.835493   -2.231985   -2.014475
H      -4.040839   -1.777631   -0.781951
