23

C       0.093160    1.507216    0.070408
C       0.097653   -0.022663    0.096529
O       0.757374   -0.517719    1.266664
C      -1.310688   -0.598165    0.002897
C      -2.101052   -0.697278   -1.340071
C      -1.195995   -1.897082   -1.738777
C      -1.553967   -2.130454   -0.234524
C      -1.113814   -3.264183    0.653087
C      -3.013455   -1.734178   -0.626595
H       1.109951    1.891829    0.188132
H      -0.316782    1.884700   -0.872236
H      -0.521798    1.909161    0.885517
H       0.721504   -0.382706   -0.726692
H       0.237753   -0.241778    2.030277
H      -1.910600   -0.188835    0.830866
H      -2.422085    0.127769   -1.977603
H      -1.629758   -2.609592   -2.446805
H      -0.153603   -1.696076   -1.991013
H      -0.031536   -3.236597    0.809097
H      -1.592725   -3.198444    1.636850
H      -1.379509   -4.233774    0.217245
H      -3.652716   -1.358936    0.178711
H      -3.551528   -2.434604   -1.271986
