15

C      -0.027649   -1.127099    0.049778
C      -0.056711    0.074546    0.027200
C      -0.068490    1.505268   -0.028997
O      -0.980353    2.185056    0.873634
C      -0.843792    3.318140   -0.009847
C       0.655393    3.729377   -0.031992
C       0.923831    3.031827   -1.347618
C       1.261403    2.329997   -0.055358
C      -0.503450    2.420280   -1.239321
H      -0.008335   -2.188657    0.075560
H      -1.640233    4.053941    0.077296
H       1.149898    4.577893    0.419682
H       1.542585    3.305595   -2.188525
H       2.219798    2.077994    0.375420
H      -1.192422    2.117149   -2.022416
