16

C      -0.095651    1.398686    0.302615
N       0.021939   -0.036136    0.080210
C      -1.125974   -0.693162   -0.527074
C      -1.085329   -2.202788   -0.341299
O      -2.037682   -2.914035   -0.528062
C       0.269283   -2.713265    0.115454
O       1.334374   -1.889784   -0.349142
C       1.290722   -0.550422   -0.076193
O       2.309978    0.084190    0.010256
H       0.803276    1.747000    0.808010
H      -0.200363    1.950801   -0.641243
H      -0.973542    1.599061    0.924536
H      -2.045356   -0.319246   -0.065837
H      -1.205231   -0.481453   -1.606547
H       0.271829   -2.762615    1.214352
H       0.445367   -3.716575   -0.275220
