18

C       0.166350    1.572583   -0.013901
C       0.001018    0.088521    0.017373
C      -1.079724   -0.705794   -0.013461
C      -2.541157   -0.395608   -0.107117
O      -2.799483    0.963290    0.189767
C      -0.659612   -2.161855    0.040885
N       0.775485   -2.072476    0.115760
C       1.228748   -0.774084    0.085899
O       2.387510   -0.411757    0.103555
H       0.917869    1.840709   -0.763868
H      -0.771673    2.081882   -0.222676
H       0.557123    1.929944    0.946156
H      -2.892392   -0.655315   -1.122103
H      -3.087155   -1.062982    0.583202
H      -3.731212    1.132717    0.023581
H      -1.092892   -2.667241    0.917304
H      -0.998099   -2.715191   -0.848826
H       1.401466   -2.858740    0.104027
