25

C       0.168312    1.522636   -0.066248
C       0.024204   -0.002631   -0.052048
C      -1.425518   -0.503116    0.015896
C      -2.282782   -0.064198   -1.200540
C      -3.489974   -0.994386   -1.409019
C      -3.981040   -1.585491   -0.053185
C      -2.832752   -2.626544   -0.215329
C      -2.985945   -2.423555   -1.747080
C      -1.488088   -2.036413    0.239745
H       1.221950    1.818923   -0.078481
H      -0.308670    1.966732   -0.945719
H      -0.291967    1.971244    0.821639
H       0.504551   -0.425616   -0.945473
H       0.576213   -0.407357    0.806860
H      -1.881747   -0.040086    0.900988
H      -2.619240    0.968580   -1.053780
H      -1.675478   -0.063569   -2.116611
H      -4.232331   -0.544247   -2.073250
H      -3.992700   -0.942889    0.831650
H      -4.960916   -2.058533   -0.160692
H      -2.987221   -3.631692    0.185685
H      -3.780394   -3.048672   -2.164805
H      -2.088289   -2.516252   -2.367782
H      -0.678668   -2.536005   -0.310399
H      -1.312170   -2.247131    1.301849
