19

C      -0.183458    1.173169   -0.080785
N      -0.224834   -0.261578    0.155070
C       0.710345   -0.836515    0.993247
C       1.219995   -2.129588    0.960587
N       0.866778   -3.080213   -0.033535
C      -0.077562   -4.114744    0.402763
C       2.089647   -2.189066    2.076886
N       2.139119   -1.044163    2.744680
N       1.277247   -0.231433    2.064017
H       0.800115    1.540213   -0.413426
H      -0.925495    1.427462   -0.840556
H      -0.460274    1.715944    0.830531
H      -0.307901   -0.822163   -0.684511
H       1.694334   -3.516541   -0.424055
H       0.279529   -4.715634    1.253990
H      -1.016717   -3.639993    0.701762
H      -0.288106   -4.788762   -0.434029
H       2.694166   -3.023543    2.405790
H       1.133045    0.705665    2.394940
