18

O       0.023482    1.287447   -0.470835
C       0.026574   -0.031847    0.069182
C      -1.378283   -0.533927    0.122994
C      -2.100699   -1.031963   -1.115347
C      -1.912250   -1.962093    0.047908
O      -1.170404   -3.128900   -0.045039
C      -2.935032   -1.677325    1.152289
C      -2.422285   -0.196945    1.197112
H       0.922984    1.626119   -0.426684
H       0.631023   -0.716254   -0.547236
H       0.459531   -0.037174    1.082778
H      -3.080586   -0.640454   -1.381235
H      -1.446246   -1.231695   -1.958425
H      -1.596018   -3.709609   -0.684970
H      -3.989117   -1.840684    0.902798
H      -2.698483   -2.219571    2.070605
H      -1.977199    0.063430    2.160682
H      -3.147451    0.575526    0.924852
