17

O       0.088801    1.382244    0.000234
C       0.030865   -0.009899   -0.024374
C       0.252682   -0.724746   -1.385073
N      -0.893069   -1.617369   -1.071348
C      -1.340363   -0.734021    0.034683
C      -1.365215   -1.438924    1.385745
O       0.015263   -1.511862    1.816089
C       0.780265   -0.616386    1.148412
N       1.951314   -0.253741    1.455117
H       0.926585    1.606272    0.430677
H       0.073728   -0.012778   -2.199915
H       1.204438   -1.239665   -1.546284
H      -1.564005   -1.728068   -1.821902
H      -2.219187   -0.113910   -0.160396
H      -1.929912   -0.878198    2.139659
H      -1.745545   -2.460056    1.319913
H       2.277387   -0.705737    2.309596
