11

F      -0.006353    0.054649    0.003457
C      -0.026941    1.372494    0.010899
N      -1.197223    1.959633    0.029186
C      -1.185459    3.295902    0.036235
C       0.006132    4.018375    0.024735
N       1.191702    3.412265    0.006127
C       1.188886    2.077331   -0.001044
C       2.441085    1.378254   -0.021042
N       3.440485    0.797145   -0.037125
H      -2.149273    3.795827    0.051408
H       0.006282    5.103506    0.030599
