15

O      -0.042678    0.024184    0.330925
C      -0.019803    1.189280    0.013958
C       1.237316    1.978260   -0.075080
C       1.588078    2.942409   -1.207328
C       0.361626    3.717984   -1.663841
O       0.041348    4.084348   -0.292034
C       1.262384    3.484960    0.168262
C       2.028165    4.123096    1.178481
C       2.671874    4.656436    2.042995
H      -0.951084    1.745677   -0.209976
H       2.107346    1.455751    0.310069
H       2.539625    2.877920   -1.715947
H       0.617510    4.610710   -2.243498
H      -0.450950    3.174260   -2.154760
H       3.238588    5.130500    2.806306
