17

O       0.022190   -0.030392    0.141192
C      -0.008407    1.173600    0.023228
C      -1.318101    1.947846   -0.057028
C      -1.211178    3.189782   -0.947247
C      -0.073482    4.097911   -0.468122
C       1.189839    3.334018   -0.207969
C       1.246252    1.999504   -0.006015
C       2.482136    1.324257    0.204265
C       3.525663    0.752148    0.383484
H      -2.094968    1.256382   -0.392030
H      -1.577019    2.248564    0.969097
H      -1.009478    2.879104   -1.979601
H      -2.159155    3.736447   -0.959208
H       0.126100    4.893152   -1.195979
H      -0.366937    4.619009    0.457483
H       2.117138    3.900812   -0.180531
H       4.440670    0.237218    0.541640
