20

C      -0.158681    1.508574    0.010776
N      -0.034053    0.056867    0.014666
C      -1.338764   -0.581996   -0.150730
C      -1.196380   -2.097808   -0.140534
O      -0.582433   -2.532583    1.060846
C       0.703951   -1.973529    1.195260
C       0.662338   -0.427973    1.202533
C       2.107576    0.045334    1.201578
O       2.760049    0.229113    2.195661
H       0.828069    1.977064    0.081121
H      -0.618596    1.834273   -0.927279
H      -0.774650    1.889049    0.846510
H      -2.041664   -0.283045    0.650440
H      -1.768782   -0.255753   -1.104904
H      -2.177194   -2.578298   -0.185092
H      -0.602267   -2.423229   -1.009734
H       1.117013   -2.329013    2.141791
H       1.354829   -2.314174    0.372378
H       0.188179   -0.097851    2.144394
H       2.540255    0.155255    0.181017
