20

C       0.182003    1.602801   -0.011689
C       0.073669    0.089829    0.015229
C       0.755614   -0.804646   -1.057804
C       1.114057   -1.758146    0.110708
C       2.557198   -1.741832    0.636222
C       2.145353   -0.526263    1.523285
C       2.876153    0.756338    1.184195
O       3.258255    1.550562    2.005008
N       0.688152   -0.718640    1.131717
H       1.190603    1.960655   -0.231913
H      -0.481814    2.002836   -0.785793
H      -0.129148    2.028456    0.947863
H      -0.993144   -0.163680    0.064275
H       0.116049   -1.201887   -1.849820
H       1.635621   -0.343028   -1.518831
H       0.573725   -2.708808    0.127458
H       2.837206   -2.621335    1.218489
H       3.336327   -1.551124   -0.108174
H       2.254550   -0.671205    2.601053
H       3.095808    0.904306    0.101576
