21

C      -0.165753    1.497657   -0.006975
C      -0.014055   -0.006262    0.058292
C       1.309817   -0.664427   -0.213816
C       0.720257   -0.697744    1.189263
C       1.368885    0.001179    2.330234
C       1.460801   -0.786469    3.404229
C       0.905088   -2.164784    3.134940
C       0.153556   -2.002017    1.784727
O      -1.258416   -1.946163    1.964430
H       0.744944    2.011791    0.315475
H      -0.376709    1.821239   -1.032228
H      -0.987717    1.847604    0.627600
H      -0.888049   -0.556825   -0.279967
H       1.331900   -1.592772   -0.776096
H       2.171592   -0.023621   -0.376949
H       1.729691    1.021506    2.270065
H       1.909030   -0.504126    4.350053
H       1.712565   -2.906025    3.061269
H       0.215728   -2.528450    3.904938
H       0.309171   -2.857676    1.122727
H      -1.449564   -1.152357    2.476992
