10

O      -0.109206   -0.007560    0.000026
C      -0.018177    1.196017    0.007558
C       1.243926    1.903836   -0.000740
C       2.284446    2.515655   -0.007399
C       3.490409    3.240267   -0.015015
N       4.690927    2.710379   -0.030769
O       5.526269    3.752336   -0.032437
N       4.772194    4.947952   -0.016845
N       3.564038    4.631457   -0.006475
H      -0.906065    1.856866    0.021577
