14

N      -0.042824    1.401323    0.150905
C      -0.065576    0.018604    0.052787
C      -1.210770   -0.729604    0.028867
O      -2.401644   -0.066653    0.037516
C      -1.133205   -2.155201   -0.004627
C       0.081125   -2.737610   -0.020202
O       1.223191   -2.025038   -0.015574
C       1.227634   -0.635404    0.006079
O       2.290925   -0.060100   -0.022422
H       0.845418    1.789402   -0.137217
H      -0.847701    1.870251   -0.237258
H      -3.125973   -0.698725   -0.001677
H      -2.027734   -2.766779   -0.013231
H       0.263275   -3.803518   -0.039208
