19

C      -0.036749    1.493007    0.035362
C       0.041106   -0.012386   -0.021561
C      -0.708541   -0.742828   -1.147750
N      -1.341533   -1.915122   -0.517979
C      -1.047249   -1.866506    0.719039
N      -0.282670   -0.775598    1.220844
C       1.126394   -0.744561    0.681335
C       1.832323   -1.970638    0.152584
O       2.445590   -2.719819    1.191246
H       0.507166    1.939820   -0.804360
H      -1.077753    1.828739   -0.019875
H       0.396208    1.873346    0.963965
H      -1.484166   -0.097196   -1.577447
H      -0.072190   -1.067833   -1.978598
H      -1.388947   -2.614167    1.430676
H       1.768717   -0.151629    1.329980
H       1.163447   -2.594523   -0.453543
H       2.651627   -1.640594   -0.496164
H       1.748058   -3.043982    1.770427
