20

C      -0.234575    1.385799    0.238021
C       0.075974   -0.084960    0.085432
C       1.455874   -0.562168   -0.325891
O       2.509997    0.358467   -0.424762
C       0.976080   -0.813588    1.075597
N       1.645949   -0.098934    2.113356
C       1.304738   -0.244892    3.427453
C       2.201643    0.494280    4.409658
O       0.365195   -0.931176    3.787687
H       0.627436    1.940564    0.614641
H      -0.532705    1.829313   -0.718852
H      -1.057665    1.533987    0.943952
H      -0.743845   -0.686278   -0.299091
H       1.537964   -1.410040   -1.004385
H       2.342323    0.937137   -1.175602
H       0.691665   -1.818419    1.365709
H       2.462108    0.428302    1.846393
H       2.845821    1.239990    3.936242
H       1.573506    0.980829    5.158599
H       2.832634   -0.231791    4.931803
