19

C      -0.101912    1.505789   -0.015872
C       1.258559    0.833561   -0.025814
C       0.017064    0.003828    0.026739
C      -0.349938   -0.778885    1.273094
C      -1.765326   -1.305389    1.176330
O      -2.772823   -0.356748    0.819118
C      -2.416956   -1.361961   -0.140892
C      -1.663276   -0.884367   -1.370166
O      -0.269899   -0.705015   -1.151703
H      -0.425704    2.026082    0.878312
H      -0.440384    1.947883   -0.945959
H       1.803495    0.827185   -0.962741
H       1.878249    0.889876    0.862929
H       0.328940   -1.634846    1.382744
H      -0.239432   -0.156946    2.168539
H      -2.068300   -2.016319    1.945664
H      -3.200497   -2.098174   -0.319391
H      -1.742831   -1.630391   -2.166660
H      -2.124602    0.049679   -1.726394
