15

C      -0.720747    0.779745    0.268314
O      -0.109605   -0.477938    0.029006
C       0.757799   -0.468490   -1.096266
C       1.673120   -1.599998   -0.993489
C       2.420240   -2.538047   -0.934190
C      -0.011187   -0.553308   -2.448700
N      -1.207365   -1.182936   -2.339676
O       0.450950   -0.099232   -3.472271
H       0.032435    1.558474    0.453064
H      -1.356055    1.094730   -0.570927
H      -1.339539    0.663690    1.160422
H       1.332854    0.467545   -1.139410
H       3.087387   -3.362647   -0.878575
H      -1.496308   -1.562895   -1.453975
H      -1.748029   -1.356188   -3.170361
