19

C      -0.877805   -0.776809   -1.162246
C      -0.418782    0.176513   -0.589930
C       0.148288    1.304242    0.118069
C      -0.014496    1.380579    1.671828
C       1.443962    1.883604    1.771059
C       1.729051    3.363996    2.111077
O       2.581197    2.995188    3.212485
C       2.368374    1.590818    2.963088
C       1.695764    1.357050    0.339526
H      -1.286359   -1.613844   -1.671853
H      -0.193640    2.239711   -0.337396
H      -0.803469    2.029850    2.059491
H      -0.129732    0.382384    2.103151
H       2.272276    3.931574    1.343149
H       0.861287    3.951213    2.441379
H       1.892931    1.087376    3.815881
H       3.303194    1.068735    2.717491
H       2.125038    0.351375    0.346645
H       2.275612    1.987516   -0.339154
