19

C      -0.202237    1.448015    0.045433
C       0.177385   -0.008368    0.045226
C       0.352317   -0.743789   -1.288765
C       1.285806   -1.885693   -0.948964
C       1.669655   -1.855698    0.328214
C       1.022109   -0.709605    1.040169
C       1.599373   -0.148501    2.309787
O       1.502562   -1.089925    3.368349
O      -0.435934   -0.831081    1.050652
H       0.529079    2.041519   -0.512977
H      -1.178630    1.584067   -0.433068
H      -0.271234    1.839673    1.062202
H      -0.612635   -1.096023   -1.673658
H       0.776419   -0.080772   -2.054307
H       1.564837   -2.642044   -1.673810
H       2.327136   -2.557252    0.825472
H       2.667549    0.056476    2.181004
H       1.100867    0.796394    2.566588
H       0.570782   -1.328341    3.437416
