23

C      -0.532175    1.267136    0.214430
C      -0.180476   -0.188253    0.460469
C       1.038565   -0.905092   -0.044732
C       0.777770   -0.785314    1.463291
C       2.118078   -0.040499    1.663772
C       2.107160    1.312021    2.378992
C       3.121882   -0.978535    2.342143
C       2.302283   -0.051250    0.088649
O       3.417331   -0.754304   -0.419099
H       0.343512    1.908171    0.097048
H      -1.119644    1.355534   -0.706265
H      -1.136534    1.673469    1.032909
H      -1.059721   -0.827677    0.381005
H       0.995014   -1.776465   -0.687066
H       0.437006   -1.560196    2.143527
H       1.812085    1.191412    3.427863
H       3.107080    1.763630    2.372765
H       1.417154    2.025596    1.925355
H       3.172920   -1.945441    1.837971
H       4.129853   -0.548494    2.346956
H       2.830481   -1.144158    3.385594
H       2.243721    0.946103   -0.373201
H       4.202843   -0.216918   -0.276429
