13

C      -0.014876    1.472845    0.049667
N       0.003936    0.006527    0.026234
C      -0.026417   -0.685378   -1.249891
O      -0.066575   -0.041483   -2.267704
N      -0.005397   -2.062837   -1.167752
C       0.038412   -2.616622    0.006487
N       0.068047   -2.007334    1.229791
C       0.048365   -0.720333    1.149756
F       0.073227   -0.011929    2.258082
H       0.885084    1.855769    0.535303
H      -0.049520    1.794683   -0.988943
H      -0.894890    1.832177    0.587167
H       0.053890   -3.703838    0.041860
