18

O       0.140038    1.373575   -0.080758
C       0.109320   -0.025885   -0.037236
C       0.183650   -0.637725    1.403985
N      -1.298887   -0.400609    1.458735
C      -1.326042   -0.626951   -0.017685
C      -1.308657   -2.120265   -0.383727
O      -1.038931   -2.187185   -1.784037
C      -0.247390   -2.825885    0.439562
C       0.493493   -2.112181    1.289079
H      -0.507940    1.680206    0.566672
H       0.809067   -0.402073   -0.781259
H       0.769285   -0.110117    2.160182
H      -1.804866   -1.095861    2.005014
H      -2.104349   -0.089249   -0.566779
H      -2.301430   -2.559384   -0.179762
H      -0.974686   -3.113753   -2.036840
H      -0.116288   -3.897118    0.305246
H       1.292923   -2.550447    1.878918
