19

C       0.199222    1.045226    0.364460
O      -0.212009    0.185857   -0.690007
C       0.659644   -0.803210   -0.994519
N       0.356392   -1.601444   -1.920076
C       1.186226   -2.694835   -2.347173
C       2.537585   -3.021390   -1.727816
N       3.087580   -2.382972   -0.780311
O       3.024426   -4.112823   -2.382923
C       4.288734   -4.620645   -1.986555
H       0.331715    0.496457    1.305112
H       1.133063    1.566669    0.120399
H      -0.596447    1.780927    0.490864
H       1.573161   -0.825326   -0.397639
H       0.594284   -3.618742   -2.279786
H       1.369605   -2.582855   -3.425325
H       3.992702   -2.766355   -0.514073
H       4.280727   -4.947156   -0.939289
H       4.484348   -5.479766   -2.629054
H       5.082804   -3.876769   -2.126339
