23

C      -0.181225    1.326163    0.698564
C      -0.224276   -0.130858    0.226969
C      -1.613735   -0.609397   -0.199437
C      -2.176713    0.149633   -1.394490
C      -1.785783   -2.150599   -0.272816
C      -2.787868   -1.971375    0.881118
C      -2.456100   -2.591225    2.228317
O      -3.210615   -1.976231    3.252762
O      -2.554454   -0.540044    0.924864
H       0.806679    1.573541    1.097996
H      -0.393032    2.028170   -0.113456
H      -0.918593    1.490821    1.489722
H       0.466738   -0.283082   -0.612870
H       0.124121   -0.780735    1.038115
H      -1.508096    0.061925   -2.258103
H      -3.156125   -0.248284   -1.674467
H      -2.300786    1.210430   -1.160725
H      -2.200919   -2.530167   -1.207468
H      -0.891014   -2.723492   -0.016736
H      -3.835887   -2.178200    0.629376
H      -2.709463   -3.657851    2.230954
H      -1.372748   -2.501785    2.415430
H      -3.086205   -1.026459    3.130692
