16

O      -0.032494    0.048764   -0.255569
C      -0.004128    1.212472    0.012702
O      -1.141545    1.969526    0.209340
C      -0.714850    3.269567    0.582007
C       0.071281    4.097880   -0.514261
C       0.959895    4.603444    0.644195
C       0.707597    3.182093    1.198421
C       1.159636    2.197259    0.091050
N       0.968780    3.089501   -1.106934
H      -1.497639    3.778287    1.139577
H      -0.407710    4.751840   -1.240103
H       1.977357    4.892826    0.381429
H       0.477652    5.364928    1.260860
H       0.882673    2.886763    2.231399
H       2.144181    1.738802    0.146023
H       0.519661    2.583285   -1.865697
