18

O      -0.035908    1.444226   -0.001240
C       0.053149    0.030056    0.025189
C       0.667358   -0.565363   -1.255061
C      -0.101695   -0.159503   -2.504864
C       0.088016    1.260111   -3.085943
O       0.398415    0.728946   -4.390218
C       0.446254   -0.615657   -3.876297
C       0.786848   -0.433564    1.221080
N       1.391958   -0.779640    2.142674
H       0.857671    1.806284    0.022143
H      -0.983149   -0.315783    0.116620
H       1.716100   -0.249484   -1.331007
H       0.677328   -1.657834   -1.155160
H      -1.160663   -0.410167   -2.389479
H      -0.788563    1.915260   -3.099740
H       0.936684    1.812549   -2.659900
H       1.473558   -1.007328   -3.844277
H      -0.177544   -1.304778   -4.456588
