20

C       0.049560    1.524630   -0.029638
C       0.056074   -0.001773    0.119093
C       0.625681   -0.417263    1.481151
C      -1.367391   -0.561570   -0.121222
C      -1.439358   -2.059392   -0.177273
N      -1.276735   -2.679416   -1.324593
O      -1.377299   -4.040638   -1.045904
C      -1.603863   -4.196551    0.264722
C      -1.657796   -2.991324    0.883124
H       1.056343    1.935403    0.097247
H      -0.316591    1.829840   -1.015329
H      -0.595463    1.990424    0.725398
H       0.699854   -0.421372   -0.664733
H       0.008026   -0.025962    2.299362
H       0.675155   -1.504757    1.587043
H       1.638172   -0.023057    1.615378
H      -2.037038   -0.197761    0.667924
H      -1.743731   -0.168595   -1.070773
H      -1.709053   -5.214886    0.606154
H      -1.830444   -2.784540    1.926033
