16

C      -0.171019    1.647466   -0.009846
C       0.007809    0.134448    0.016302
C       1.176884   -0.386929   -0.899559
C       2.026753   -0.547044    0.369194
O       3.197665   -0.656075    0.574839
C       0.794670   -0.394498    1.272746
C      -1.287651   -0.604039   -0.214118
O      -2.359056   -0.089408   -0.400629
H       0.783455    2.156085    0.159243
H      -0.570363    1.973235   -0.973998
H      -0.874897    1.967274    0.763116
H       0.963553   -1.363656   -1.351268
H       1.545864    0.287021   -1.676100
H       0.875604    0.273791    2.133093
H       0.441104   -1.373999    1.617862
H      -1.178991   -1.716087   -0.198989
