21

C       0.616373    1.370137   -0.276238
C      -0.165523    0.129618    0.155693
O      -0.241623   -0.864537   -0.866809
C       0.947358   -1.642443   -0.819755
C       1.438816   -1.651456    0.644895
C       1.421498   -3.028257    1.298108
O       2.770047   -1.110208    0.657909
C       0.468262   -0.636047    1.342394
O       1.114639    0.149635    2.313134
H       1.658948    1.133765   -0.510444
H       0.154688    1.807488   -1.165457
H       0.608362    2.115217    0.524515
H      -1.199329    0.413380    0.376444
H       0.701507   -2.640336   -1.193885
H       1.738809   -1.219669   -1.452898
H       2.137861   -3.699494    0.813001
H       1.675714   -2.952301    2.362675
H       0.426229   -3.476607    1.227172
H       3.212986   -1.435985    1.448851
H      -0.319471   -1.189100    1.862878
H       1.970684    0.379650    1.926460
