19

C      -0.340475    1.357547    0.641137
O      -0.266160   -0.026458    0.894368
C       0.938039   -0.603845    0.447681
C       0.907275   -2.080028    0.746425
C      -0.342063   -2.931486    0.461638
O      -0.204556   -3.611376    1.739542
C       0.922576   -2.803891    2.111304
C       2.263456   -3.384891    1.641485
O       2.131044   -2.732229    0.347924
H      -0.281135    1.577450   -0.436230
H      -1.302493    1.707305    1.022416
H       0.466575    1.908186    1.148960
H       1.073001   -0.461139   -0.639396
H       1.810327   -0.145612    0.942195
H      -1.277343   -2.364662    0.413437
H      -0.253072   -3.611329   -0.392275
H       0.831036   -2.360113    3.103860
H       3.147805   -3.018517    2.178075
H       2.294825   -4.476314    1.563189
