21

C      -1.121701    1.058578   -1.033945
C      -0.351240   -0.111425   -0.460569
C       1.138984   -0.250082   -0.555088
C       2.033410    0.765038   -1.233895
N       0.488714   -0.011037    0.738904
C       0.648530    1.240403    1.421839
C      -0.014881    1.352785    2.770052
C       1.485399    1.213496    2.674552
H      -0.530556    1.972527   -1.114714
H      -1.483469    0.809115   -2.037282
H      -1.996721    1.283255   -0.414161
H      -0.927650   -1.037185   -0.481144
H       1.528265   -1.265693   -0.636870
H       1.614922    1.772940   -1.250628
H       3.005365    0.817839   -0.731106
H       2.214746    0.465107   -2.271651
H       0.696473    2.157221    0.835839
H      -0.431684    2.310631    3.060934
H      -0.573365    0.487187    3.106268
H       1.913766    0.256519    2.948187
H       2.103754    2.075442    2.899319
