25

C       0.043073    1.522814    0.232097
C      -0.075527   -0.001402    0.313020
C      -1.364071   -0.535849   -0.325998
C      -1.477508   -2.044490   -0.259752
C      -1.974845   -2.727328    1.006213
C      -2.808373   -2.742531   -0.255698
O      -3.926834   -1.888226   -0.300538
C      -2.987727   -4.035484   -1.030321
C      -4.120175   -4.914903   -0.487072
H       0.969565    1.878305    0.694219
H       0.037183    1.866006   -0.808612
H      -0.793518    2.012305    0.743320
H       0.792420   -0.463000   -0.176712
H      -0.034880   -0.321031    1.362165
H      -2.237216   -0.088453    0.160023
H      -1.406856   -0.215310   -1.376158
H      -0.688842   -2.574444   -0.790869
H      -1.498627   -3.644543    1.337523
H      -2.315071   -2.078096    1.807200
H      -4.590568   -2.238926    0.302057
H      -3.186813   -3.786895   -2.080286
H      -2.044403   -4.593655   -1.010071
H      -4.214657   -5.839084   -1.064662
H      -3.943197   -5.189060    0.558873
H      -5.083210   -4.396103   -0.544040
