18

C       0.454391    1.394475   -0.113740
C       0.179638   -0.108099    0.020443
C       0.618237   -0.675789    1.353378
C       0.906368   -2.144621    1.524551
N       1.966550   -1.162404    1.574960
C       3.066828   -1.063014    0.746888
O       3.426225   -0.035892    0.206757
C       3.827008   -2.300119    0.646528
C       4.466480   -3.311229    0.523813
H       1.526232    1.591196   -0.046039
H       0.089409    1.769404   -1.074504
H      -0.053446    1.958076    0.676854
H      -0.895929   -0.302899   -0.082264
H       0.676184   -0.655517   -0.788715
H       0.208246   -0.158375    2.220918
H       0.671713   -2.646170    2.459710
H       0.849187   -2.772195    0.637866
H       5.042566   -4.197371    0.412036
