19

C       0.050688    1.516755    0.099962
C      -0.010467    0.001040   -0.101352
C      -1.423843   -0.556470    0.057210
N      -1.450439   -1.991186   -0.171740
C      -2.651183   -2.657731   -0.054268
C      -3.934169   -2.197113   -0.070845
O      -4.765969   -3.298078    0.021240
C      -3.928920   -4.341521    0.101493
N      -2.669918   -4.043510    0.064310
H       1.073693    1.887685   -0.010345
H      -0.573252    2.039322   -0.633203
H      -0.300793    1.801056    1.097740
H       0.363700   -0.265712   -1.096441
H       0.652254   -0.492415    0.622774
H      -1.824348   -0.291698    1.052156
H      -2.086791   -0.083320   -0.679952
H      -0.687703   -2.504884    0.247992
H      -4.410379   -1.237631   -0.144162
H      -4.373107   -5.320759    0.190265
