18

O      -0.170600    1.454387    0.010776
C       0.024033    0.049399    0.001940
C      -1.359336   -0.586158    0.012194
C      -1.325695   -2.097777    0.004276
O      -0.290614   -2.730129   -0.009485
C      -2.673197   -2.807624    0.014591
N      -2.475012   -4.233056    0.006505
C      -3.509260   -5.107460    0.006955
O      -4.680103   -4.785956    0.016609
H       0.693198    1.876776    0.004429
H       0.575837   -0.282413   -0.888955
H       0.592956   -0.291141    0.878671
H      -1.921481   -0.245919    0.891766
H      -1.938281   -0.237308   -0.853011
H      -3.245750   -2.485661    0.895805
H      -3.262852   -2.478336   -0.852559
H      -1.513413   -4.543177   -0.004928
H      -3.165528   -6.160457   -0.002030
