17

C      -0.057404    1.518319    0.027851
C      -0.015009    0.023431    0.004894
C      -0.012224   -0.795667   -1.084101
N       0.016351   -2.115542   -0.651948
C       0.029946   -3.223134   -1.477218
O       0.058756   -4.364571   -1.088636
C       0.039521   -2.134248    0.743368
C       0.017402   -0.835718    1.172231
N      -0.055926   -0.359557    2.483732
H       0.841303    1.947452    0.490688
H      -0.128002    1.927171   -0.983453
H      -0.917475    1.884973    0.600589
H      -0.029555   -0.565405   -2.137779
H       0.011866   -2.933454   -2.544003
H       0.061610   -3.074449    1.266058
H       0.214518   -1.042523    3.178501
H       0.457033    0.500152    2.628617
