20

C      -0.272178    1.475167    0.176234
C       0.120270   -0.007908    0.104190
C       0.735885   -0.354046   -1.221322
C      -0.019770   -0.819052   -2.423850
N       0.902747   -1.765301   -1.800399
C       2.284874   -1.403686   -2.305716
C       2.615331   -1.633887   -3.769249
C       2.124395    0.000124   -1.675947
O       2.875525    0.902066   -1.430147
H       0.601174    2.111943    0.010098
H      -1.020803    1.723713   -0.583079
H      -0.691384    1.717487    1.156911
H       0.835805   -0.238968    0.902349
H      -0.753884   -0.648006    0.268544
H      -1.066082   -1.062796   -2.260782
H       0.194134   -0.410097   -3.407374
H       3.003040   -1.946686   -1.678743
H       1.939473   -1.105355   -4.446242
H       3.630771   -1.280485   -3.972276
H       2.571902   -2.701552   -4.006358
