20

C       0.050072    1.501842   -0.368980
C       0.129120    0.047069    0.037472
O       0.343130   -0.784184   -1.097034
C       1.293244   -1.798104   -0.747812
C       2.528059   -1.651669   -1.630025
C       1.507031   -1.560475    0.770042
C       2.873999   -1.861655    1.353850
O       1.218462   -0.171727    0.899930
H       0.986209    1.803392   -0.845067
H      -0.772179    1.644586   -1.074550
H      -0.126856    2.128416    0.509331
H      -0.805459   -0.273335    0.537246
H       0.834219   -2.781343   -0.915238
H       3.033643   -0.700931   -1.438052
H       3.236564   -2.469547   -1.463256
H       2.226772   -1.669558   -2.680944
H       0.741783   -2.137078    1.317291
H       3.653813   -1.278986    0.858282
H       2.887039   -1.615668    2.418998
H       3.109310   -2.925178    1.247462
