20

C      -0.169995    1.606946    0.128897
C       0.063967    0.109268   -0.029131
C      -1.259937   -0.618813   -0.312185
C      -1.909045   -0.214010   -1.615707
O      -3.058234    0.126556   -1.736447
C       1.233273   -0.370120   -0.951436
C       1.816907   -1.042774    0.285963
C       2.043849   -0.068809    1.366338
N       0.674732   -0.586291    1.180684
H       0.755375    2.158941    0.308898
H      -0.627527    2.024788   -0.774559
H      -0.849984    1.796184    0.966147
H      -1.054843   -1.697397   -0.359096
H      -1.967835   -0.451397    0.504347
H      -1.237953   -0.258350   -2.505761
H       0.913927   -1.069862   -1.725940
H       1.854318    0.402174   -1.415112
H       2.194424   -2.059230    0.327732
H       2.492475   -0.430610    2.286396
H       2.280603    0.964810    1.130121
