16

C       0.065542    1.467729    0.038233
C      -0.080132   -0.018923   -0.019653
C      -0.155814   -0.803096   -1.109995
C      -0.031873   -2.232577   -0.668168
O       1.379310   -2.380371   -0.176359
C       0.915149   -2.131430    1.125592
C      -0.526896   -2.267391    0.809645
C      -0.051975   -0.884349    1.190846
H       1.033218    1.750340    0.471325
H      -0.003134    1.915149   -0.956667
H      -0.706242    1.921446    0.672401
H      -0.088450   -0.477330   -2.140137
H      -0.274121   -3.035780   -1.361387
H       1.544807   -2.422404    1.957701
H      -1.346253   -2.822385    1.248211
H      -0.258335   -0.495975    2.181835
