17

C      -0.008938    1.468829   -0.061216
C      -0.040874   -0.021994   -0.024145
O       0.805085   -0.734048   -0.925498
C      -0.078737   -1.898958   -0.803547
C       0.572894   -2.860706    0.177118
C       0.582458   -2.047430    1.487167
O       1.151534   -2.346775    2.506042
C      -0.286011   -0.848280    1.264305
C      -1.107623   -1.050782   -0.008597
H       0.980971    1.837159    0.226952
H      -0.229730    1.829097   -1.070741
H      -0.745398    1.886416    0.630430
H      -0.363077   -2.294118   -1.778371
H      -0.033113   -3.764209    0.319162
H       1.582761   -3.160305   -0.111483
H      -0.692081   -0.314928    2.114426
H      -2.185185   -1.015271   -0.090385
