18

O      -0.044450    1.352049    0.400376
C      -0.020596    0.000055   -0.044749
C      -1.423695   -0.527564   -0.006094
C      -2.001212   -1.130243    1.250469
C      -1.751528   -2.003698    0.047052
C      -2.929288   -2.191243   -0.892524
O      -3.500586   -0.896466   -1.050807
C      -2.453532    0.065870   -0.956888
H       0.836630    1.720818    0.286246
H       0.371624   -0.064815   -1.073524
H       0.627625   -0.620547    0.594377
H      -1.330725   -1.242227    2.095561
H      -3.028464   -0.893631    1.509205
H      -0.974732   -2.759667    0.075319
H      -2.583275   -2.598611   -1.857334
H      -3.716230   -2.847276   -0.505343
H      -2.898578    1.001887   -0.608335
H      -1.986681    0.247834   -1.940269
