22

N      -0.089583    1.059123   -0.157574
H      -0.212931    0.062226   -0.374744
H       0.914908    1.251977   -0.084596
H      -0.444931    1.607804   -0.947906
C      -0.804788    1.490452    1.137318
C      -0.590258    2.967453    1.386674
C      -1.362038    3.456567    2.629491
C      -1.222389    4.971598    2.793948
C      -2.113769    5.596803    3.861200
C      -2.470870    7.110444    3.496537
O      -2.431136    7.375182    2.274741
O      -2.770313    7.809422    4.476772
H      -1.856611    1.237817    0.985193
H      -0.393158    0.855407    1.925001
H       0.481126    3.174442    1.512025
H      -0.934090    3.545788    0.518624
H      -2.423318    3.200283    2.508057
H      -1.005672    2.914307    3.516348
H      -0.166441    5.216823    2.977658
H      -1.508671    5.482349    1.863280
H      -3.072844    5.059442    3.907636
H      -1.677813    5.555139    4.863764
