20

C      -0.631065    1.270215    0.273202
C       0.362695    0.175220   -0.138922
C       1.038346   -0.485439    1.052912
C       2.042324    0.372137    1.798210
O       0.161637   -1.246883    1.912239
C       1.161340   -1.951460    1.183589
C       0.682563   -2.956918    0.145623
C       0.415738   -4.267396    0.739682
N       0.219096   -5.302203    1.214029
H      -0.136826    2.099107    0.788257
H      -1.134782    1.681544   -0.605999
H      -1.391656    0.860128    0.943586
H      -0.167397   -0.572408   -0.735011
H       1.139959    0.597121   -0.788344
H       1.576312    1.292150    2.163342
H       2.443738   -0.165748    2.660091
H       2.873140    0.653221    1.142232
H       1.981390   -2.329064    1.797173
H      -0.230679   -2.602514   -0.338054
H       1.445396   -3.079604   -0.633052
