16

C      -0.007492    1.386067    0.037496
O      -0.046601   -0.044990    0.050943
C      -1.240114   -0.627351    0.023927
N      -2.339614    0.127124   -0.014000
C      -3.470380   -0.580544   -0.037968
N      -3.576551   -1.901743   -0.027487
C      -2.396660   -2.552571    0.011575
C      -2.443614   -4.051219    0.025603
N      -1.204238   -1.964111    0.038479
H       1.051607    1.642886    0.064011
H      -0.474284    1.780950   -0.868159
H      -0.523113    1.798972    0.907948
H      -4.396564   -0.009507   -0.069238
H      -2.968122   -4.414482   -0.863763
H      -1.436562   -4.466118    0.057480
H      -3.016305   -4.396555    0.892096
