18

O      -0.244973    1.462346    0.012558
C      -0.035751    0.060146    0.002526
C      -1.406745   -0.605962    0.012238
C      -1.303897   -2.121229    0.002426
O      -2.641619   -2.647822    0.012566
C      -2.755754   -3.982378    0.006390
N      -1.777466   -4.788269   -0.007588
C      -4.213876   -4.389722    0.018521
O      -4.551995   -5.544046    0.015548
H       0.613566    1.895395    0.007039
H       0.527045   -0.254521   -0.891671
H       0.544513   -0.264615    0.881819
H      -1.956416   -0.277496    0.900668
H      -1.973846   -0.267271   -0.861274
H      -0.784606   -2.497515   -0.886392
H      -0.767198   -2.507773    0.876372
H      -2.148524   -5.741196   -0.009098
H      -4.936018   -3.549533    0.030169
