19

C       0.089411    1.517214    0.086417
C       0.041063    0.030673   -0.049243
C      -0.059693   -0.788941   -1.147911
C      -0.225523   -0.773610   -2.641855
C       0.101699   -2.257349   -2.989653
N      -0.249543   -3.031734   -1.771401
C      -0.070751   -2.133908   -0.699815
C       0.029174   -2.143397    0.666502
N       0.090665   -0.803708    1.047962
H       0.965294    1.852744    0.656238
H       0.144098    1.980067   -0.901792
H      -0.799359    1.920184    0.589216
H      -1.255534   -0.530140   -2.935170
H       0.434808   -0.085800   -3.178869
H      -0.462056   -2.623313   -3.852701
H       1.174481   -2.344193   -3.221709
H       0.264370   -3.900105   -1.695059
H       0.067214   -2.933262    1.397553
H       0.242617   -0.490777    1.990338
