19

C      -0.119134    1.578212   -0.042105
C       0.069783    0.062627    0.086654
C       0.718951   -0.545614   -1.154683
C       0.768516   -2.100803   -1.272491
N      -0.063532   -1.977017   -2.470463
C      -0.631264   -2.950257   -3.364665
C      -0.169816   -0.609673   -2.423007
O      -0.763201    0.177879   -3.117893
H       0.846065    2.087488   -0.139840
H      -0.713245    1.817966   -0.927959
H      -0.624537    1.987143    0.837898
H       0.685198   -0.168359    0.965492
H      -0.902369   -0.419170    0.254543
H       1.685455   -0.073241   -1.357922
H       1.757657   -2.535670   -1.456462
H       0.282749   -2.638922   -0.449227
H      -1.297083   -3.644732   -2.836919
H      -1.211669   -2.409153   -4.116026
H       0.146044   -3.535154   -3.871937
