19

C      -0.132957    1.501702    0.003813
C       0.013382   -0.012367    0.024024
C       0.683697   -0.542745    1.286728
O      -1.335931   -0.549065   -0.073051
C      -1.477216   -1.773884   -0.608561
O      -0.568722   -2.459852   -1.010302
C      -2.949302   -2.181920   -0.646901
N      -3.212825   -3.497782   -1.201252
H       0.852797    1.974464    0.044475
H      -0.636611    1.831523   -0.908753
H      -0.716048    1.847275    0.863193
H       0.564358   -0.359636   -0.854536
H       0.110113   -0.260210    2.175314
H       0.767832   -1.630887    1.247474
H       1.690892   -0.124714    1.380228
H      -3.342011   -2.120546    0.374798
H      -3.494122   -1.420043   -1.216793
H      -2.819086   -3.544677   -2.137280
H      -2.689775   -4.189117   -0.670379
