23

C      -0.022790    1.471568    0.010407
C       1.291792    0.711092   -0.006714
C      -0.011314   -0.025041    0.002026
C      -0.512753   -0.917347    1.135584
C      -2.020592   -1.008398    0.799551
C      -2.035982   -0.999753   -0.766686
C      -0.535028   -0.904819   -1.131254
C       0.137789   -2.257231   -0.794998
C       0.153180   -2.265889    0.771242
H      -0.299033    1.984758    0.926616
H      -0.316926    1.994834   -0.894463
H       1.874247    0.727240   -0.923011
H       1.892161    0.717191    0.898069
H      -0.300410   -0.573116    2.150349
H      -2.480868   -1.906165    1.223008
H      -2.560250   -0.145266    1.199630
H      -2.504580   -1.892845   -1.190902
H      -2.583305   -0.132318   -1.146531
H      -0.342626   -0.549367   -2.146128
H      -0.411068   -3.103891   -1.218174
H       1.154989   -2.294838   -1.195220
H       1.178044   -2.307815    1.150957
H      -0.387351   -3.117233    1.195736
