19

C       0.039816    1.479944   -0.042296
C       0.019288    0.025169   -0.034215
C      -0.009922   -1.178403   -0.021029
C      -0.012367   -2.636725   -0.007697
C       1.002329   -3.214060   -0.986840
O       0.198598   -3.166893    1.340796
C      -1.198803   -3.486520    1.492335
C      -1.440190   -3.273698   -0.014848
O      -2.476048   -2.429894   -0.431994
H       1.022436    1.865788   -0.335348
H      -0.698695    1.880128   -0.745752
H      -0.194329    1.883823    0.948834
H       2.006432   -2.857328   -0.742574
H       0.995590   -4.306367   -0.933711
H       0.763104   -2.899683   -2.007274
H      -1.348416   -4.490263    1.904877
H      -1.731042   -2.746468    2.104589
H      -1.431801   -4.216846   -0.575465
H      -3.260568   -2.962763   -0.590832
