19

C      -1.356955   -0.161344    0.018942
C       0.166242   -0.032855   -0.031884
C       0.790338   -0.646694   -1.305532
C       2.305563   -0.386690   -1.394970
O       2.549264    1.018799   -1.501966
C       3.401027    1.594112   -0.630129
O       3.674076    2.754956   -0.666035
C       0.560181   -2.087115   -1.393768
C       0.405985   -3.278194   -1.446939
H      -1.824138    0.346821   -0.831687
H      -1.666145   -1.210287   -0.005353
H      -1.753300    0.288840    0.933619
H       0.449807    1.023940    0.003628
H       0.612583   -0.517615    0.845343
H       0.331111   -0.163449   -2.179116
H       2.813869   -0.798127   -0.513752
H       2.718205   -0.866774   -2.286562
H       3.807472    0.875346    0.108180
H       0.253711   -4.327763   -1.504725
