22

C      -0.356835    1.509924    0.177397
C       0.054710    0.054867    0.039131
C       1.105427   -0.375240   -1.023418
C       1.904986   -0.969038    0.142245
C       2.545244   -2.327806    0.152371
C       3.854548   -2.361721   -0.632169
O       4.351224   -3.690118   -0.585672
C       2.201347    0.089891    1.128407
N       0.865493   -0.543764    1.169712
H       0.501198    2.186925    0.227792
H      -0.965517    1.813120   -0.681474
H      -0.954751    1.651798    1.083702
H      -0.845261   -0.560902   -0.046066
H       0.726685   -1.122222   -1.724632
H       1.601139    0.418274   -1.592002
H       2.740291   -2.632383    1.186283
H       1.862905   -3.072226   -0.275947
H       3.675815   -2.039260   -1.671280
H       4.568690   -1.649028   -0.189454
H       5.176451   -3.720588   -1.078191
H       2.807135   -0.177956    1.989192
H       2.306942    1.125344    0.814421
