13

C      -0.002780    1.490333   -0.070948
C       0.001766   -0.000459    0.051336
N      -0.062293   -0.774321   -1.036797
N      -0.038182   -2.031066   -0.581935
C       0.040767   -2.096542    0.778215
C       0.068028   -0.785611    1.223025
C       0.079363   -3.325769    1.476301
N       0.110060   -4.340688    2.033525
H       0.907715    1.926733    0.352644
H      -0.065969    1.775235   -1.122755
H      -0.853673    1.930108    0.459529
H      -0.077102   -2.800834   -1.229873
H       0.127586   -0.458474    2.247916
