17

O      -0.067531    1.457243    0.010701
C       0.033964    0.045230    0.002694
C      -1.391179   -0.516269    0.011869
C      -1.410772   -2.021209    0.004228
C      -1.416481   -2.766575   -1.175639
N      -1.403272   -4.100126   -1.199798
C      -1.384503   -4.702132   -0.009881
N      -1.386934   -4.112525    1.186355
C      -1.400372   -2.778782    1.176242
H       0.820705    1.825777    0.005369
H       0.566194   -0.319839   -0.890370
H       0.581124   -0.328850    0.882905
H      -1.905595   -0.131877    0.898979
H      -1.920531   -0.122675   -0.862331
H      -1.440681   -2.264212   -2.142140
H      -1.370973   -5.789390   -0.015625
H      -1.411251   -2.286485    2.148149
