17

C      -0.009152    1.470798   -0.344635
O       1.073214    2.102604    0.350275
C       2.024038    1.153038    0.854285
C       2.149960    1.333274    2.404377
N       0.864000    0.796861    2.948547
C       0.464927    0.003327    2.047449
N      -0.831829   -0.193453    1.430423
C      -0.097702    0.002581    0.106159
C       1.280631   -0.172057    0.789137
H      -0.919867    2.033847   -0.124741
H       0.173842    1.497225   -1.429655
H       2.974907    1.232643    0.314810
H       3.032227    0.815328    2.803173
H       2.219243    2.389306    2.677724
H      -1.219035   -1.130590    1.507194
H      -0.409753   -0.683119   -0.682535
H       1.832540   -1.097913    0.638817
