17

O       0.041810    0.269820   -1.135962
C      -0.003265    1.214660   -0.378526
N      -1.155324    1.881082   -0.067328
C      -1.249165    3.023209    0.832767
C      -0.644470    4.310904    0.242374
C       0.674806    4.013923   -0.494981
N       1.524444    3.063605    0.211025
C       1.276340    1.725330    0.336197
O       2.001663    0.961453    0.935249
H      -1.984415    1.534385   -0.527484
H      -2.302767    3.172629    1.078391
H      -0.742541    2.781258    1.772740
H      -1.339013    4.778480   -0.464766
H      -0.482124    5.023556    1.058974
H       0.453366    3.623516   -1.493632
H       1.246749    4.932703   -0.641475
H       2.365073    3.384658    0.668848
