16

O      -0.004535    1.412906    0.069821
C      -0.055361    0.020689    0.005973
C      -1.483373   -0.519818   -0.115068
C      -1.423416   -2.038786   -0.126526
O      -0.610115   -2.567035   -1.190036
C       0.545905   -1.956914   -1.569891
N       1.417118   -2.530081   -2.285004
C       0.748476   -0.500431   -1.174822
O       1.487144    0.233925   -1.785188
H       0.682921    1.679010   -0.561817
H       0.398201   -0.430548    0.911328
H      -2.086347   -0.177803    0.731469
H      -1.948427   -0.140187   -1.031575
H      -1.029283   -2.413643    0.827916
H      -2.409449   -2.481023   -0.280852
H       1.136475   -3.495666   -2.474202
