15

C      -0.093372    1.475447    0.069965
C       0.047932   -0.005773    0.039127
C       1.187475   -0.848294   -0.380278
C       0.612070   -1.005767    1.055779
C       1.378043   -0.847884    2.236702
C       2.023912   -0.711590    3.242249
C      -0.741351   -1.670968    0.901097
O      -1.351039   -2.554887    1.401251
O      -1.168683   -0.801023   -0.092749
H       0.860767    1.936513    0.338580
H      -0.393450    1.853209   -0.912942
H      -0.848025    1.774905    0.802108
H       1.039952   -1.645191   -1.101743
H       2.165349   -0.377333   -0.388875
H       2.587378   -0.597600    4.135169
