18

O      -0.065044    1.481279   -0.290818
C       0.054424    0.128160    0.131501
C      -1.330316   -0.484455    0.097515
C      -1.964415   -0.829076   -1.275776
C      -1.162655   -2.166386   -1.421853
N      -2.361241   -3.051439   -1.610298
C      -2.828729   -1.981286   -0.667282
C      -1.468426   -2.010684    0.115234
O      -1.091475   -2.832507    1.148075
H       0.797772    1.898069   -0.210044
H       0.734927   -0.435410   -0.527063
H       0.460693    0.062423    1.152787
H      -1.999525    0.046784    0.783471
H      -2.255265   -0.156413   -2.079578
H      -0.209721   -2.345007   -1.920407
H      -2.765524   -2.906764   -2.539584
H      -3.840612   -1.927918   -0.263264
H      -1.307486   -3.737242    0.887349
