17

C      -0.079750    1.523016    0.009702
C      -0.074006    0.028774   -0.063984
C       0.727825   -0.834695   -1.053536
C      -0.242124   -2.018651   -0.715169
N       0.250949   -2.778697    0.425029
C       0.419051   -1.884648    1.478240
O       1.099014   -2.032884    2.457202
N      -0.401194   -0.724899    1.200963
C      -1.166440   -0.984683   -0.020467
H       0.882392    1.894799    0.378428
H      -0.252675    1.957955   -0.980496
H      -0.859902    1.870096    0.691057
H       0.576159   -0.465331   -2.071735
H       1.795953   -0.996531   -0.873901
H      -0.614767   -2.642590   -1.524380
H       0.991882   -3.455222    0.303089
H      -2.247781   -0.915369   -0.012920
