19

C       0.034471    1.569647    0.047938
C       0.011770    0.044831    0.041575
O       0.692834   -0.472111    1.187592
C       2.026377   -0.654153    1.088510
N       2.691281   -1.010259    2.098216
C      -1.412531   -0.555001    0.054142
C      -1.400084   -2.094630    0.030653
C      -2.192630   -0.056670    1.193420
N      -2.826046    0.334349    2.077103
H       1.064513    1.934764    0.007224
H      -0.502235    1.967138   -0.819276
H      -0.432796    1.954462    0.957901
H       0.501454   -0.333575   -0.867444
H       2.416972   -0.476807    0.076017
H       3.671238   -1.124674    1.848410
H      -1.910246   -0.188154   -0.852536
H      -0.896717   -2.484530    0.916648
H      -2.418456   -2.488119    0.002719
H      -0.869017   -2.446911   -0.858816
