17

O       0.029361    0.024932    0.291435
C       0.036787    1.181717   -0.028849
O      -1.160524    1.833398   -0.175917
C      -1.313816    2.957748   -1.014460
C      -1.260589    4.335124   -0.422948
C      -0.129694    3.834717   -1.300582
C       1.200683    3.391442   -0.756719
C       1.458536    3.199171    0.703713
C       1.279056    1.982034   -0.195254
H      -2.035984    2.748473   -1.797029
H      -1.928751    5.087806   -0.826036
H      -1.086453    4.412837    0.643748
H      -0.077238    4.247504   -2.302197
H       2.052842    3.703532   -1.350293
H       2.459902    3.384321    1.074165
H       0.672509    3.414904    1.417548
H       2.149677    1.369100   -0.388359
