13

C      -0.018199    1.601123    0.011546
C       0.068357    0.067962   -0.006742
O       0.835289   -0.396039    1.070959
C      -1.324076   -0.581287    0.076595
N      -2.162588   -0.365472   -0.965947
O      -1.631002   -1.244864    1.053966
H       0.993120    2.014957    0.026452
H      -0.539698    1.995435   -0.867052
H      -0.541398    1.939497    0.910687
H       0.533646   -0.251290   -0.954255
H       0.215545   -0.925199    1.602606
H      -1.871315    0.127810   -1.791308
H      -3.070938   -0.799682   -0.955203
