10

N      -0.002778    1.405953    0.166226
C      -0.062939    0.019818    0.051089
C      -1.149454   -0.829765    0.039390
N      -0.578001   -2.064233   -0.018991
N       0.754632   -1.998398   -0.034525
N       1.074058   -0.730508    0.002647
H       0.924006    1.744032   -0.060107
H      -0.700091    1.893804   -0.379041
H      -2.213530   -0.675362    0.071580
H      -1.027903   -2.964831   -0.047880
