18

O      -0.262378    0.159512    0.453487
C      -0.039042    1.266433    0.034825
C       1.297264    1.918267   -0.008175
N       1.279944    3.398230    0.206802
C       1.519326    2.883294   -1.137249
C       2.940628    3.021724   -1.676710
C       3.764722    1.725130   -1.553271
C       3.580392    1.047826   -0.217036
C       2.460729    1.147887    0.497008
H      -0.860121    1.920971   -0.352157
H       0.314513    3.717590    0.300535
H       0.710989    2.983542   -1.859536
H       2.908461    3.347678   -2.721048
H       3.433521    3.812456   -1.103673
H       3.490178    1.021224   -2.352590
H       4.823427    1.953821   -1.715282
H       4.403520    0.443607    0.154960
H       2.341811    0.634923    1.445354
