15

O      -0.110244   -0.072734    0.128211
C      -0.052196    1.131522    0.028312
N       1.113247    1.846070   -0.119801
C       1.118135    3.305573   -0.112059
C       2.198830    3.904393   -1.018091
O       2.085623    4.996720   -1.530182
N       3.321406    3.126051   -1.134890
C       3.426474    1.828953   -0.612882
C       2.353255    1.192217   -0.137431
H      -0.939111    1.792488    0.046521
H       0.152991    3.685400   -0.449309
H       1.297724    3.692411    0.903092
H       4.081255    3.523758   -1.666115
H       4.410888    1.384683   -0.625187
H       2.359619    0.177924    0.230564
