25

C      -0.134084    1.542772    0.197608
C      -0.072480    0.022275   -0.007146
C      -1.487202   -0.569733   -0.066843
C       0.729951   -0.371120   -1.261645
C       2.215086    0.005509   -1.222789
C       2.979581   -0.484053   -2.452529
C       4.455799   -0.105120   -2.456880
C       5.274374   -0.606769   -3.635362
O       4.951260    0.557854   -1.574365
H       0.858849    1.983537    0.322927
H      -0.611752    2.031566   -0.660617
H      -0.720447    1.792654    1.088005
H       0.438763   -0.415096    0.863060
H      -2.043622   -0.168353   -0.922661
H      -1.461235   -1.659818   -0.169618
H      -2.056242   -0.331132    0.837833
H       0.642201   -1.457402   -1.403833
H       0.257470    0.085625   -2.144246
H       2.339842    1.089841   -1.144368
H       2.682624   -0.411528   -0.322798
H       2.907842   -1.576682   -2.554634
H       2.531210   -0.088184   -3.375991
H       5.267912   -1.702399   -3.663156
H       4.839104   -0.263968   -4.580701
H       6.301600   -0.249988   -3.552006
