19

C       0.015871    1.582322    0.026401
C       0.026960    0.069655   -0.037136
C       0.721716   -0.701227   -1.212363
C      -0.351379   -1.826923   -1.038226
C       0.052826   -2.774459    0.114264
C       0.484498   -1.958305    1.310413
C       0.450053   -0.626100    1.255567
C      -1.237960   -0.698005   -0.481383
O      -2.404824   -0.436483   -0.525251
H       1.009489    1.977119    0.265607
H      -0.303047    2.013704   -0.926893
H      -0.679701    1.929571    0.797598
H       0.613648   -0.178976   -2.166575
H       1.762751   -0.986113   -1.046928
H      -0.707236   -2.366213   -1.917616
H      -0.800587   -3.412680    0.380506
H       0.851899   -3.456311   -0.208621
H       0.801752   -2.480748    2.208020
H       0.707258   -0.004209    2.108280
