13

N      -0.096986    1.190354   -0.284214
C      -0.055598   -0.026098    0.015628
O       0.980112   -0.841461    0.430455
C       0.115724   -2.030418    0.437217
C      -1.052298   -1.138812    0.027455
C      -2.478263   -1.073249    0.414995
N      -2.080865   -1.415899   -0.959518
H       0.813691    1.641460   -0.192997
H       0.439660   -2.756954   -0.311282
H       0.076801   -2.479322    1.432229
H      -2.917886   -1.890799    0.979444
H      -2.888716   -0.087910    0.617712
H      -2.180879   -0.607794   -1.571439
