14

O      -0.017451    1.359224    0.008806
C      -0.012317    0.000356    0.001018
C      -1.226032   -0.608850    0.004813
C      -1.562140   -2.030221   -0.001476
O      -2.737985   -2.379164    0.002707
C      -0.505603   -3.054353   -0.012130
C       0.844026   -2.946641   -0.019318
N       1.674206   -1.850405   -0.019223
C       1.301898   -0.621091   -0.010672
H       0.885979    1.695106    0.005291
H      -2.094550    0.043295    0.013637
H      -0.916136   -4.060932   -0.014571
H       1.406653   -3.877917   -0.026863
H       2.126095    0.104124   -0.012400
