14

O       0.055034    1.310074    0.188636
C       0.046640   -0.028729    0.013876
C       0.026292   -0.788980   -1.138233
O      -0.037569   -0.212839   -2.387939
C       0.012501   -2.149728   -0.748953
C       0.031757   -2.186810    0.638412
N       0.041800   -0.866021    1.082716
C       0.036164   -3.265779    1.535537
C       0.040642   -4.181916    2.321375
H       0.048701    1.702680   -0.693350
H       0.640067   -0.604822   -2.948096
H      -0.010363   -3.013085   -1.394962
H       0.049954   -0.577812    2.045790
H       0.042272   -4.995025    3.003392
