21

C      -0.036667    1.490418    0.065943
C       0.069918    0.005506   -0.049497
C       0.022044   -0.765421   -1.146206
C       0.115046   -2.197722   -0.716101
C      -1.035331   -2.785868    0.246380
C       0.113874   -3.439607    1.056947
C       0.880938   -2.166978    0.639308
C       0.071161   -0.931212    1.151930
C      -1.365430   -1.589428    1.149001
H       0.822379    1.910543    0.604748
H      -0.089162    1.968705   -0.916231
H      -0.929962    1.784002    0.633186
H      -0.101762   -0.424031   -2.167454
H       0.455493   -2.931517   -1.447416
H      -1.864406   -3.365905   -0.158129
H      -0.058430   -3.636862    2.119490
H       0.524399   -4.331160    0.575128
H       1.968869   -2.084403    0.671064
H       0.376236   -0.492491    2.103349
H      -2.124843   -0.912907    0.750291
H      -1.679722   -1.920021    2.143856
