17

N      -0.007250    1.259017    0.490204
C      -0.024089    0.074924    0.050735
C      -1.327668   -0.634282   -0.226228
C      -1.419277   -1.440455   -1.539384
C      -0.657497   -2.739894   -1.494275
N      -1.235342   -3.851576   -1.658224
O       0.687184   -2.681481   -1.208575
C       1.351839   -1.440224   -1.220487
O       1.143982   -0.653097   -0.069295
H       0.956116    1.553409    0.665319
H      -1.522122   -1.314507    0.612904
H      -2.104204    0.131394   -0.207481
H      -2.459613   -1.708647   -1.724091
H      -1.093911   -0.825582   -2.387356
H      -0.561204   -4.615841   -1.576999
H       2.414231   -1.683730   -1.215694
H       1.101099   -0.870639   -2.123102
