15

C       0.137567    1.509990    0.150039
C      -0.090296    0.008196   -0.095475
C       0.693151   -0.510244   -1.258005
N       0.151381   -0.823153   -2.402011
O       1.178257   -1.238816   -3.211065
N       2.373335   -1.188526   -2.570881
C       2.108247   -0.742282   -1.363087
C       3.096843   -0.551671   -0.370956
C       3.904631   -0.378266    0.502907
H       1.191976    1.721560    0.349037
H      -0.170974    2.097977   -0.718916
H      -0.444355    1.843483    1.013607
H       0.195877   -0.556834    0.798782
H      -1.149017   -0.190023   -0.282121
H       4.630142   -0.230054    1.265044
