14

O      -0.083324    1.370193   -0.016834
N       0.070327   -0.028789    0.014744
C      -1.039228   -0.606827    0.136938
C      -2.537599   -0.343678    0.060198
O      -2.570023   -1.514091   -0.844967
C      -1.501327   -2.044334    0.030447
C      -2.282702   -2.233759    1.358383
O      -2.001858   -1.223186    2.337463
C      -3.043312   -0.980808    1.379600
H       0.826728    1.669741   -0.117074
H      -2.997563    0.554627   -0.341237
H      -0.924636   -2.859912   -0.398111
H      -2.624868   -3.196172    1.719195
H      -4.048678   -0.849037    1.760842
