17

C       0.258475    1.577896    0.066736
C      -0.197185    0.125957   -0.062323
N       0.476023   -0.511134   -1.189509
C       1.724581   -1.219782   -0.924181
C       0.494367   -1.970039   -1.309670
C      -0.203199   -2.897975   -0.337539
H       1.332086    1.631986    0.275550
H       0.068800    2.122772   -0.862152
H      -0.270900    2.079616    0.882873
H      -0.025080   -0.395536    0.894018
H      -1.276566    0.091006   -0.254635
H       2.533941   -1.056879   -1.631668
H       2.044835   -1.309814    0.114718
H       0.415140   -2.295417   -2.346885
H      -0.033403   -2.619223    0.704929
H      -1.284786   -2.915445   -0.513187
H       0.167521   -3.919971   -0.470565
