14

C      -0.812447    0.604744    0.356669
C       0.452208   -0.203724    0.238802
N       1.539488   -0.040622    0.880845
N       0.457361   -1.266960   -0.679593
C      -0.520687   -1.711753   -1.515870
O      -1.646758   -1.276819   -1.658286
C      -0.060756   -2.917127   -2.348144
O       1.035384   -3.405189   -2.266124
H      -1.082252    1.054220   -0.602128
H      -1.656856   -0.026300    0.644526
H      -0.671024    1.389590    1.102094
H       1.459965    0.744706    1.524510
H       1.331703   -1.780779   -0.721780
H      -0.851849   -3.284102   -3.030276
