23

C       0.142201    1.626522   -0.209595
C      -0.088911    0.116857   -0.013805
C       0.585229   -0.418359    1.164962
C       1.156798   -0.833637    2.142397
C       1.815946   -1.362183    3.319472
C       1.018618   -1.474579    4.659328
C       1.743401   -2.820411    4.937469
C       0.966574   -3.956881    5.582034
C       2.080820   -2.899575    3.422913
H       1.207722    1.844364   -0.322796
H      -0.379789    1.981429   -1.103516
H      -0.226320    2.190289    0.651795
H      -1.166553   -0.080342    0.058761
H       0.253465   -0.422685   -0.906702
H       2.751892   -0.820986    3.499696
H       1.130820   -0.662005    5.381020
H      -0.046124   -1.629267    4.460797
H       2.661544   -2.628980    5.505545
H       0.042925   -4.162979    5.029234
H       1.555146   -4.881141    5.603988
H       0.689754   -3.715507    6.614617
H       1.317839   -3.458300    2.872686
H       3.068319   -3.260589    3.125925
