22

C      -0.153775    1.540855   -0.020712
C      -0.012018    0.023716   -0.006126
C       1.116406   -0.602085   -0.887919
C       2.097692   -0.259648    0.288832
C       0.830837   -0.609193    1.147799
C       0.745561   -2.121118    0.843853
C       0.952249   -2.115974   -0.629526
N      -0.334655   -2.552483   -0.060385
C      -0.548731   -3.992427   -0.095450
H       0.787608    2.080416    0.113091
H      -0.588143    1.870157   -0.971470
H      -0.833076    1.864081    0.776239
H      -0.992001   -0.431253   -0.145185
H       1.296897   -0.274641   -1.912718
H       2.976370   -0.900722    0.409853
H       2.396307    0.787803    0.334381
H       0.722082   -0.288945    2.184922
H       1.202268   -2.852240    1.503513
H       1.573535   -2.842998   -1.143054
H       0.374252   -4.585254    0.031987
H      -1.245117   -4.272744    0.701430
H      -0.998648   -4.266610   -1.055110
