19

C       0.070646    1.651616    0.080403
C       0.045398    0.119370    0.091277
C       0.611265   -0.480521   -1.186128
C       0.448273   -2.010439   -1.475014
O      -0.362475   -2.793076   -0.621999
C      -0.250186   -1.606915   -2.760729
C      -1.401853   -0.732039   -2.475230
N      -0.061532   -0.118018   -2.494555
H       1.093597    2.030125   -0.021469
H      -0.509960    2.045300   -0.758972
H      -0.347738    2.059673    1.005433
H       0.641391   -0.256942    0.934193
H      -0.973216   -0.241463    0.265315
H       1.661059   -0.185625   -1.290341
H       1.414620   -2.497294   -1.654797
H       0.156131   -3.030440    0.153381
H      -0.067696   -2.039752   -3.738302
H      -2.007419   -0.423302   -3.321631
H      -1.947574   -0.844831   -1.544371
