21

O      -0.111004    1.333126    0.013437
C       0.041748   -0.040985    0.000424
C       0.707004   -0.944183   -1.086759
C       0.109192   -1.904768   -0.018155
C       0.692456   -0.966331    1.077805
C      -1.162822   -1.004724   -0.017537
C      -2.262795   -1.077997    1.070674
C      -3.285022   -1.459260   -0.036522
C      -2.247989   -1.055538   -1.121770
H       0.761176    1.741537    0.021484
H       0.245077   -0.949765   -2.076018
H       1.798961   -0.912675   -1.150788
H       0.144142   -2.992273   -0.029061
H       1.783445   -0.936307    1.157163
H       0.217257   -0.992048    2.060434
H      -2.122284   -1.799459    1.880114
H      -2.466933   -0.098202    1.513412
H      -3.504231   -2.530150   -0.048974
H      -4.231820   -0.915011   -0.037346
H      -2.446252   -0.066832   -1.547030
H      -2.096489   -1.760265   -1.943873
