15

N      -0.072008    1.314994   -0.197527
C      -0.011394    0.075746    0.049491
C      -1.270088   -0.771950    0.112518
N      -1.208213   -1.929348    1.005193
C       0.032572   -2.665829    0.777910
C       1.259275   -1.778593    0.948186
O       1.185362   -0.576482    0.163556
H       0.871206    1.707691   -0.251199
H      -2.105723   -0.124877    0.381961
H      -1.463808   -1.142024   -0.904370
H      -1.240579   -1.613369    1.971059
H       0.093798   -3.513385    1.468758
H       0.004379   -3.071820   -0.241369
H       1.373061   -1.496039    2.005413
H       2.177663   -2.281322    0.630609
