18

C       0.018735    1.598925    0.008028
C       0.106456    0.077262    0.001792
C       0.833803   -0.678608   -1.117698
C       2.313029   -0.799715   -0.732236
C       1.280455   -1.763999   -0.172919
C       1.067279   -0.679520    0.967408
C       2.494276   -0.152269    0.639877
O       3.519011   -0.739190    1.414685
H       0.987643    2.072014   -0.173781
H      -0.666998    1.947286   -0.772325
H      -0.361248    1.966174    0.968204
H      -0.898263   -0.349126    0.107674
H       0.528491   -0.794098   -2.151056
H       3.075939   -0.993072   -1.476547
H       1.176283   -2.837809   -0.222941
H       0.798146   -0.868629    2.005482
H       2.668869    0.925247    0.705860
H       3.448551   -1.695556    1.306125
