22

C      -0.140912    1.552635    0.070941
C      -0.006182    0.025227   -0.011000
C       0.801453   -0.461056   -1.199664
C       1.819852   -1.258955   -0.861797
C       2.821779   -1.909482   -1.761238
C       1.867550   -1.394136    0.629182
N       2.129862   -0.084347    1.304087
C       0.743307   -0.595403    1.182402
C      -0.024930   -0.962490    2.424842
H       0.845639    2.009151    0.181410
H      -0.614406    1.954832   -0.830605
H      -0.756863    1.847744    0.927739
H      -1.018611   -0.406203   -0.051670
H       0.573986   -0.144951   -2.213331
H       2.612526   -1.700187   -2.813826
H       3.837583   -1.559444   -1.537994
H       2.830035   -2.999081   -1.628191
H       2.232928   -2.301277    1.102586
H       2.447371   -0.271903    2.255242
H      -0.420689   -0.069418    2.923601
H      -0.874823   -1.611853    2.187370
H       0.610593   -1.491349    3.143594
