18

C       0.046765    0.443168   -1.107345
C      -0.582848    0.203306    0.261473
N      -0.142800   -1.073540    0.812130
C      -0.319160   -1.300594    2.038560
O      -0.918185   -0.457725    2.929263
C      -0.791707   -0.951730    4.282948
C      -0.441292   -2.438870    4.177656
C       0.081321   -2.575480    2.750002
O       0.677634   -3.500461    2.272710
H      -0.210074   -0.366965   -1.795575
H      -0.302990    1.388541   -1.534000
H       1.137305    0.482873   -1.029463
H      -0.349284    1.028145    0.949649
H      -1.679139    0.187851    0.173239
H      -0.002230   -0.381133    4.784180
H      -1.738499   -0.753699    4.788507
H       0.295486   -2.779037    4.906897
H      -1.329102   -3.073512    4.276123
