17

C       0.107028    1.220245    0.198405
O      -0.220409   -0.085058   -0.222522
C       0.579869   -0.572386   -1.283089
C       1.920966   -1.192350   -0.802491
C       1.196005   -2.558925   -0.649610
C       0.078950   -2.013097   -1.589077
O      -1.264747   -2.293174   -1.334827
H       1.131761    1.282329    0.591637
H       0.008095    1.942660   -0.625851
H      -0.591570    1.490247    0.993953
H       0.609165    0.160514   -2.101493
H       2.670645   -1.196652   -1.598588
H       2.365179   -0.754935    0.094166
H       1.724409   -3.462611   -0.960030
H       0.810113   -2.698884    0.363150
H       0.284081   -2.280675   -2.630448
H      -1.515729   -1.722402   -0.596589
