17

O      -0.100122    1.399514   -0.038832
C       0.042335    0.024774   -0.003759
C      -0.843311   -0.816074    0.855969
C       0.658973   -0.930640    1.027497
C       1.252893   -1.785711   -0.106164
C       0.635433   -0.806733   -1.126984
C       0.139950   -0.976599   -2.506382
N       1.401834   -0.241597   -2.233353
H       0.779411    1.794142   -0.050837
H      -1.344981   -0.259836    1.641565
H      -1.422490   -1.636330    0.437120
H       1.137179   -0.713291    1.974262
H       2.344369   -1.762377   -0.147664
H       0.909232   -2.824256   -0.152696
H       0.274517   -1.921950   -3.025150
H      -0.735974   -0.408754   -2.810511
H       1.213234    0.758979   -2.289156
