20

C      -0.100588    1.576606    0.040250
C      -0.003285    0.053683   -0.007851
C       1.205423   -0.477804   -0.841969
C       2.002693   -0.673519    0.479252
C       0.657645   -0.603216    1.231171
O       0.592514    0.180385    2.422983
C       0.952206   -0.456831    3.566230
N       0.905902    0.417556    4.616918
O       1.290980   -1.614950    3.637622
H       0.861088    2.037529    0.287441
H      -0.418340    1.964640   -0.933187
H      -0.825350    1.904072    0.791350
H      -0.978142   -0.366211   -0.273227
H       0.986110   -1.424657   -1.341343
H       1.625653    0.213784   -1.576008
H       2.594310   -1.581551    0.603323
H       2.627310    0.192826    0.712178
H       0.262562   -1.598515    1.442567
H       0.400616    1.280055    4.505608
H       0.943914    0.007780    5.534231
