17

N       0.948187   -0.093731    0.276779
C      -0.206913    0.387153    0.046137
N      -1.316545   -0.451039   -0.046763
C      -1.066963   -1.884275    0.134692
C      -2.288952   -2.732624    0.025131
C      -3.502769   -2.254103   -0.214665
C      -3.764519   -0.793497   -0.400903
C      -2.558762    0.127605   -0.300823
O      -2.688934    1.327183   -0.440069
H       1.635235    0.657251    0.311297
H      -0.472438    1.433316   -0.099507
H      -0.310887   -2.195004   -0.598214
H      -0.581302   -2.025925    1.109074
H      -2.123156   -3.797637    0.156945
H      -4.356454   -2.922348   -0.283751
H      -4.224661   -0.591384   -1.377248
H      -4.495514   -0.422273    0.329619
