21

C      -0.011764    1.516945   -0.228587
C       1.527170    1.476833    0.109722
C       1.228370    0.212221    0.952725
C       1.754882   -1.219568    1.137298
C       0.398011   -1.787505    1.628646
C      -0.287526   -0.700065    2.433569
C       0.636555    0.503869    2.362004
C      -0.761652   -0.963262    1.020836
C      -0.028286   -0.014428    0.094218
H      -0.577905    2.136331    0.468763
H      -0.287167    1.798840   -1.247030
H       2.121888    1.262504   -0.782952
H       1.961623    2.337257    0.624856
H       2.095492   -1.673952    0.201697
H       2.539096   -1.337977    1.893059
H       0.269631   -2.835789    1.865219
H      -0.901796   -0.924393    3.296267
H       1.418306    0.493790    3.130435
H       0.106800    1.457296    2.430231
H      -1.713283   -1.436305    0.813221
H       0.242609   -0.537584   -0.831465
