18

C      -0.090066    1.611017   -0.039345
C       0.142510    0.104935    0.051379
C       1.387649   -0.699908   -0.196520
C       2.680894   -0.161688    0.465395
N       2.387410    1.125880    1.149371
C       2.050313   -0.163567    1.794863
C       0.711405   -0.715296    1.206086
C       0.002516   -1.770877    1.836545
C      -0.585406   -2.662445    2.394870
H       0.680588    2.104977   -0.631885
H      -1.061259    1.797812   -0.510182
H      -0.091008    2.082220    0.944020
H      -0.700295   -0.459309   -0.345401
H       1.408358   -1.526711   -0.895428
H       3.686102   -0.428581    0.169043
H       3.261383    1.444539    1.568427
H       2.441370   -0.445040    2.763202
H      -1.109510   -3.447170    2.880712
