27

C       0.045931    1.594378    0.148970
C       0.011289    0.079489   -0.084564
C      -1.403235   -0.527814   -0.103574
C      -2.218094   -0.103190   -1.340757
C      -3.650775   -0.655600   -1.303198
C      -3.664392   -2.179391   -1.127078
C      -2.844481   -2.599999    0.101726
C      -1.394572   -2.070849    0.065203
C      -0.542558   -2.813962   -0.978125
H       1.076630    1.960494    0.193401
H      -0.460857    2.143981   -0.650279
H      -0.441652    1.860024    1.093850
H       0.525403   -0.150671   -1.026400
H       0.593909   -0.412041    0.706252
H      -1.933226   -0.132384    0.777967
H      -2.248700    0.989394   -1.412813
H      -1.712827   -0.453083   -2.251607
H      -4.190517   -0.192154   -0.465205
H      -4.190527   -0.370853   -2.213801
H      -4.694394   -2.541367   -1.029348
H      -3.258129   -2.655101   -2.028998
H      -3.337968   -2.210333    1.002754
H      -2.838741   -3.692390    0.199927
H      -0.944584   -2.280352    1.045805
H      -0.890998   -2.647877   -2.002087
H       0.506230   -2.507080   -0.934360
H      -0.575742   -3.893381   -0.794352
