15

C       0.027758    1.520425    0.028429
C       0.022595    0.015346    0.016898
C      -0.103926   -0.719543   -1.157521
F      -0.225804   -0.068210   -2.322264
C      -0.107481   -2.106833   -1.156723
N       0.010523   -2.805790   -0.027085
C       0.133603   -2.137922    1.116553
C       0.144906   -0.742249    1.188420
O       0.276761   -0.174626    2.416718
H       0.963691    1.917118    0.441842
H      -0.078446    1.911961   -0.983305
H      -0.798669    1.921759    0.628597
H      -0.208073   -2.649689   -2.091491
H       0.229283   -2.713583    2.032703
H       0.270522    0.784513    2.334770
