18

C      -0.342098    1.396868    0.024429
C       0.283362    0.004449    0.002387
C       0.806687   -0.381382   -1.362214
O       0.733740    0.277258   -2.365047
O       1.396403   -1.611877   -1.308886
C       1.919955   -2.128319   -2.544187
C       3.208125   -2.886112   -2.234363
C       0.909255   -3.000742   -3.166137
N       0.132315   -3.698456   -3.659669
H       0.386654    2.159739   -0.260945
H      -1.176918    1.461586   -0.677483
H      -0.712468    1.630340    1.026047
H       1.113195   -0.080460    0.713719
H      -0.436455   -0.765955    0.304088
H       2.102037   -1.288867   -3.221289
H       3.935799   -2.197198   -1.799381
H       3.016910   -3.696212   -1.527261
H       3.624018   -3.309817   -3.151751
