15

O       0.357481    0.658534    0.962006
C      -0.125070    0.300771   -0.319878
C      -1.478581   -0.353187   -0.182614
C      -2.243555   -0.223002    0.973415
N      -3.459963   -0.765917    1.125994
C      -3.938341   -1.451349    0.116571
F      -5.148898   -1.981886    0.281703
C      -3.282708   -1.664170   -1.093893
C      -2.025085   -1.099500   -1.230994
H       1.140607    1.203893    0.848252
H      -0.214374    1.188037   -0.968898
H       0.563398   -0.393981   -0.828424
H      -1.855676    0.337104    1.816290
H      -3.747633   -2.251302   -1.875709
H      -1.466078   -1.241005   -2.151868
