15

C       0.044285   -1.213427    0.006514
C       0.039478   -0.011145    0.030809
C       0.027781    1.420499    0.066390
C       0.441539    2.233008    1.286058
C       1.645206    1.576952    1.947109
O       2.376801    1.559932    0.688078
C       1.311689    2.253478    0.039519
C       1.598268    3.241567   -0.939300
C       1.834633    4.071664   -1.777065
H       0.055029   -2.274684   -0.026197
H      -0.775966    1.897212   -0.489053
H      -0.191041    3.002710    1.705962
H       2.150340    2.223974    2.670830
H       1.507151    0.571813    2.356603
H       2.048766    4.803741   -2.516129
