14

O      -0.168949    1.474033   -0.088178
C      -0.019258    0.083850   -0.055195
C      -1.305148   -0.738982   -0.087515
C      -0.704907   -1.779110   -0.928836
N      -1.791634   -0.881502   -1.505605
C      -0.739097   -0.274807   -2.315266
O      -0.766923    0.094267   -3.447832
C       0.374226   -0.653122   -1.357406
O       1.685182   -0.726045   -1.733028
H       0.704932    1.878314   -0.105481
H       0.613785   -0.256616    0.775991
H      -2.067706   -0.814487    0.675311
H      -0.753474   -2.855216   -0.987896
H       1.719704   -0.787077   -2.696854
