20

C      -0.350332    1.644017    0.014794
C       0.068571    0.170211   -0.002193
C      -1.178018   -0.737581   -0.090211
O      -1.919522   -0.595895   -1.292007
C       1.027685   -0.168130   -1.184632
C       2.034587   -1.112472   -0.578110
C       1.947459   -1.154453    0.749872
C       0.863651   -0.244726    1.274926
H       0.522737    2.299388    0.095346
H      -0.876594    1.922533   -0.905919
H      -1.010985    1.863591    0.862265
H      -0.861333   -1.785573   -0.061230
H      -1.817197   -0.560209    0.789753
H      -2.341011    0.268629   -1.282173
H       0.473974   -0.596672   -2.026855
H       1.524385    0.733370   -1.571171
H       2.753389   -1.662741   -1.175836
H       2.583342   -1.741321    1.403924
H       1.294422    0.629348    1.783667
H       0.218689   -0.734892    2.017086
