21

C       0.515694    1.664813    0.072289
C       0.030889    0.234117    0.014270
C      -1.084773   -0.172797    0.968931
C      -2.447166    0.426186    0.682510
O      -2.429784    1.813071    0.928308
C      -3.302829   -0.116003   -0.431667
C      -3.687854   -0.355627    1.021654
C       0.244091   -0.557617   -1.207803
O       1.086565   -0.742377   -0.069311
H       1.342205    1.814625   -0.626993
H      -0.295617    2.357246   -0.160548
H       0.872653    1.902064    1.080578
H      -1.164421   -1.263163    0.942400
H      -0.797722    0.103300    1.991682
H      -3.288358    2.180631    0.697691
H      -3.899076    0.590183   -1.002060
H      -2.941992   -0.955153   -1.016309
H      -3.589029   -1.356974    1.427308
H      -4.534360    0.198823    1.415591
H      -0.413902   -1.394324   -1.442037
H       0.719459   -0.096219   -2.072993
