19

C      -0.093543    1.486150   -0.025431
C       1.256943    0.818931    0.001436
C       0.000357   -0.020283    0.008660
C      -0.369765   -0.837416    1.231681
C      -1.803265   -1.259913    1.440477
C      -0.841535   -2.203057    0.757445
C      -0.823082   -2.163601   -0.757173
O      -1.715382   -1.203671   -1.342573
C      -0.326540   -0.851978   -1.203686
H      -0.436753    1.984642    0.874624
H      -0.416865    1.957979   -0.947139
H       1.857302    0.834553   -0.902774
H       1.835720    0.863860    0.918100
H       0.263109   -0.742341    2.108028
H      -2.098337   -1.505041    2.455131
H      -2.573093   -0.808836    0.827123
H      -0.536972   -3.120650    1.245964
H      -0.689329   -3.080827   -1.323874
H       0.197329   -0.678924   -2.141927
