19

C       0.095712    1.526663    0.087213
C       0.022073    0.041728   -0.265696
N      -1.298267   -0.546015   -0.015446
C      -2.310106   -0.099582   -0.962522
C      -1.256725   -1.989292    0.119104
C      -1.011570   -2.431869    1.557483
F      -1.980623   -2.015508    2.378140
F      -0.971738   -3.774721    1.620008
F       0.153690   -1.976750    2.050129
H       1.122050    1.887242   -0.032432
H      -0.541670    2.140834   -0.555436
H      -0.210170    1.686205    1.125028
H       0.326247   -0.109933   -1.320204
H       0.743122   -0.498044    0.350838
H      -2.094322   -0.396495   -2.006461
H      -3.285519   -0.507858   -0.683570
H      -2.392336    0.989349   -0.935741
H      -2.222495   -2.419275   -0.159353
H      -0.493302   -2.474844   -0.511436
