21

C       0.004083    1.541168   -0.067886
C      -0.020218    0.016954    0.101034
C       0.680550   -0.456947    1.344759
C       0.395745   -0.164650    2.839285
C       1.621894   -1.105117    2.911789
C       2.379564   -1.631022    4.096214
C       1.141390   -1.916818    1.663369
O       2.409988   -1.805587    0.947990
C       2.226007   -0.510157    1.596234
H       1.031774    1.915674   -0.122423
H      -0.509900    1.843157   -0.985279
H      -0.488783    2.042747    0.771552
H      -1.059865   -0.335861    0.115865
H       0.460317   -0.464089   -0.760143
H       0.550693    0.864461    3.178714
H      -0.544344   -0.556113    3.241981
H       1.729755   -2.213960    4.757956
H       3.195607   -2.279028    3.759665
H       2.811160   -0.815624    4.686886
H       0.587961   -2.855393    1.605548
H       2.990668    0.256045    1.460418
