14

C      -0.015011    1.450466    0.017979
N      -0.020586    0.003259    0.000339
C      -0.084090   -0.805541   -1.123561
C       0.000742   -2.110619   -0.716283
C       0.129301   -2.117302    0.706829
C       0.114691   -0.799326    1.098004
O       0.207598   -0.188457    2.310783
H       1.003917    1.855071    0.031117
H      -0.528034    1.819755   -0.872414
H      -0.540483    1.812167    0.904019
H      -0.188297   -0.364861   -2.101564
H      -0.032899   -2.976810   -1.358938
H       0.213758   -2.975295    1.355851
H       0.229036   -0.871399    2.987228
