21

O       0.010287    1.512848   -0.069539
C       0.068273    0.103634    0.125222
C      -1.315339   -0.524618    0.067391
C      -2.045226   -0.789422   -1.295993
C      -1.110217   -2.012084   -1.519918
C      -1.534227   -2.073186   -0.018428
C      -1.136772   -3.104858    0.999200
O      -1.565055   -4.373513    0.523354
C      -2.979423   -1.750508   -0.508225
H      -0.375783    1.667034   -0.937766
H       0.767473   -0.361733   -0.583218
H       0.492398   -0.031683    1.126830
H      -1.951514   -0.029189    0.810903
H      -2.349908   -0.048196   -2.037284
H      -1.503395   -2.809414   -2.154397
H      -0.059469   -1.821852   -1.744674
H      -0.044077   -3.080613    1.145624
H      -1.602580   -2.860435    1.968400
H      -1.311001   -5.038044    1.170309
H      -3.652343   -1.293865    0.223401
H      -3.477031   -2.532341   -1.085913
