18

C      -0.141969    1.347758   -0.102670
C       1.295366    0.997946    0.165405
C       0.265441   -0.102340    0.038505
N      -0.119497   -0.758901    1.243191
C      -0.412165   -1.980329    1.237885
C      -0.861858   -2.804148    2.426124
O      -0.738861   -4.144725    1.970203
C      -0.893100   -4.086326    0.578433
O      -0.383740   -2.825040    0.153854
H      -0.717293    1.767174    0.714028
H      -0.420780    1.699730   -1.089556
H       2.019085    1.105595   -0.634711
H       1.680388    1.184248    1.160838
H       0.289927   -0.698056   -0.870292
H      -0.224412   -2.659382    3.299604
H      -1.900871   -2.561193    2.697443
H      -0.310243   -4.886490    0.115017
H      -1.952513   -4.157657    0.280604
