20

C       0.558835    1.369027    0.267288
C      -0.288701    0.160437   -0.150217
C       0.267077   -0.511355   -1.383017
O       1.459350   -1.293389   -1.227811
C       0.259410   -1.959409   -1.651275
C      -0.308247   -3.015994   -0.736409
C       0.544802   -4.281445   -0.741037
O      -0.088155   -5.229352    0.104553
H       1.584139    1.059160    0.489953
H       0.600994    2.118994   -0.530132
H       0.145771    1.850764    1.158263
H      -0.340646   -0.555094    0.674925
H      -1.317410    0.479487   -0.363341
H       0.296156    0.140059   -2.261413
H       0.285561   -2.254004   -2.704229
H      -0.382134   -2.650602    0.290812
H      -1.322476   -3.273516   -1.066315
H       0.638688   -4.664290   -1.770921
H       1.557247   -4.034829   -0.388314
H       0.470974   -6.010115    0.151672
