21

C      -0.039332    1.506930    0.038942
C       0.022186    0.007891   -0.021228
C       0.825178   -0.794768   -1.049543
C      -0.162566   -1.988517   -0.837291
C       0.373252   -2.964926    0.215738
C       0.573704   -2.080941    1.480690
O       1.925574   -1.671979    1.691855
C      -0.280009   -0.853775    1.199885
C      -1.097962   -1.021931   -0.054085
H       0.911531    1.927101    0.387846
H      -0.249279    1.933650   -0.949082
H      -0.823028    1.848862    0.723570
H       0.716323   -0.360040   -2.048160
H       1.883245   -0.975666   -0.839530
H      -0.547966   -2.457494   -1.742716
H      -0.365937   -3.748800    0.419431
H       1.308086   -3.451982   -0.083493
H       0.205939   -2.600626    2.377580
H       2.436631   -2.455185    1.919351
H      -0.710382   -0.316129    2.037739
H      -2.172178   -0.907827   -0.128220
