17

C      -0.020529    1.479755   -0.172046
C       1.532204    1.595756    0.077666
C       1.953274    2.296502    1.394375
C       1.198076    1.436036    2.415301
C       0.940398    0.231748    1.890773
C      -0.379839   -0.419336    1.496537
N      -0.041261   -0.021276    0.067966
C       1.422890    0.112244    0.458623
H      -0.653627    2.057812    0.509137
H      -0.323630    1.690330   -1.199899
H       2.111208    1.875711   -0.804912
H       3.045643    2.315199    1.516617
H       1.614516    3.337914    1.441438
H       0.693924    1.864797    3.274578
H      -0.426056   -1.511199    1.538941
H      -1.295650    0.008269    1.915301
H       2.117728   -0.668006    0.142277
