16

O      -0.306087   -0.029335    0.301518
C      -0.038197    1.106931   -0.029998
C      -1.045574    2.019177   -0.729133
C      -1.484487    3.216533    0.113774
O      -2.649301    3.372521    0.413556
C      -0.472347    4.228736    0.504266
C       0.852738    4.149777    0.346989
C       1.644770    2.981941   -0.196491
N       1.186964    1.664929    0.207844
H      -0.605298    2.396706   -1.661802
H      -1.926956    1.425120   -0.962727
H      -0.910813    5.119899    0.944132
H       1.452203    5.013284    0.626977
H       1.694653    3.064358   -1.295608
H       2.677620    3.073977    0.147665
H       1.841379    1.052121    0.669426
