14

O       0.060790    1.380300   -0.049574
C       0.071072    0.022916   -0.029792
C       0.011896   -0.765895   -1.136189
N       0.046911   -2.099966   -0.688128
C       0.006533   -3.222975   -1.504108
O      -0.064099   -3.168046   -2.705906
C       0.127474   -2.100504    0.694755
O       0.172147   -3.297075    1.321944
C       0.145184   -0.814140    1.146271
H       0.111763    1.707081    0.853041
H      -0.050702   -0.548928   -2.185914
H       0.046321   -4.157471   -0.924259
H       0.225037   -3.146890    2.270985
H       0.203030   -0.491321    2.175126
