16

O      -0.201437    0.195715    0.610858
C       0.266666    0.834693   -0.298184
C       1.213145    1.993335   -0.152351
C       0.807009    3.353722   -0.829459
C       1.032626    4.057430    0.533439
O      -0.174559    4.187110    1.298561
C       0.100105    2.960214    2.026618
C       1.385304    2.704896    1.215381
H       0.012849    0.592358   -1.357457
H       2.178094    1.654345   -0.550072
H       1.473634    3.668837   -1.635082
H      -0.229106    3.423068   -1.169030
H       1.647873    4.960866    0.550939
H       0.284857    3.168632    3.087388
H      -0.702539    2.224852    1.937054
H       2.299306    2.508045    1.772526
