16

N      -0.090717    1.296257    0.056548
C      -0.018607    0.031670    0.009873
C      -1.231928   -0.888813    0.014079
C      -0.648419   -2.295202    0.015190
C      -1.235653   -3.458353    0.734212
N      -1.227938   -3.423958   -0.731111
C       0.854893   -2.154328   -0.057809
O       1.688524   -3.022622   -0.084516
N       1.108222   -0.786613   -0.054928
H       0.832351    1.733485    0.040414
H      -1.858057   -0.671228    0.882644
H      -1.830587   -0.689474   -0.880737
H      -0.565463   -4.193417    1.169915
H      -2.169064   -3.294245    1.266852
H      -2.145278   -3.149880   -1.077460
H       2.054105   -0.433361   -0.069443
