19

C      -0.052538    1.540427    0.005063
C       0.002855    0.046678   -0.053390
C      -0.176343   -0.743635   -1.126832
C      -0.036110   -2.237223   -0.833953
C       0.185313   -2.226963    0.666742
C       1.323848   -2.626722    1.628283
C       1.352734   -1.135405    2.137437
C       0.223442   -0.833065    1.132291
O      -0.884210   -1.701491    1.451149
H       0.877201    1.955786    0.413457
H      -0.209611    1.975636   -0.985413
H      -0.861898    1.879719    0.663003
H      -0.459949   -0.378618   -2.109824
H      -0.924162   -2.804085   -1.137362
H       0.818213   -2.678354   -1.362975
H       1.072484   -3.399714    2.358073
H       2.244324   -2.903533    1.108707
H       1.108000   -0.961509    3.187505
H       2.290783   -0.631123    1.894827
