18

C      -0.117723    1.552729    0.028291
C       0.080987    0.055397   -0.014511
C       0.037261   -0.606718   -1.205265
C       0.077014   -2.036862   -1.406307
C       0.726698   -2.924703   -0.631612
C       1.638263   -2.481920    0.485426
C       0.799154   -1.779501    1.521367
C       0.170969   -0.617383    1.270353
H       0.746919    2.055738    0.478102
H      -0.269542    1.969374   -0.970641
H      -0.987300    1.817659    0.642724
H      -0.166628   -0.008688   -2.091972
H      -0.483443   -2.409822   -2.261631
H       0.606489   -3.989141   -0.813116
H       2.169254   -3.331536    0.920805
H       2.391477   -1.786260    0.088881
H       0.705187   -2.233657    2.504413
H      -0.338398   -0.121757    2.095758
