17

O      -0.077263    1.464985   -0.046263
C       0.003300    0.051173    0.006056
C      -1.413022   -0.506815    0.053157
C      -1.373220   -2.035494    0.152318
C      -0.408697   -2.721766   -0.812131
O      -0.498596   -3.903865   -1.085480
N       0.610843   -1.947566   -1.303767
C       0.719809   -0.498963   -1.233347
H       0.813617    1.824294    0.015936
H       0.546103   -0.277621    0.907428
H      -1.952850   -0.074724    0.900832
H      -1.939152   -0.190183   -0.855894
H      -1.064182   -2.341362    1.160289
H      -2.357294   -2.480249   -0.011364
H       1.209419   -2.439457   -1.951973
H       0.279458   -0.012071   -2.116369
H       1.782402   -0.226294   -1.207169
