19

O       0.073975    1.485911   -0.076104
C       0.038568    0.078960    0.017757
C       0.137079   -0.627837    1.408759
C      -0.918475    0.143481    2.220250
C      -2.107037   -0.307603    1.340601
O      -3.316738    0.370444    1.415943
C      -2.108401   -1.831234    1.578411
C      -0.784717   -1.772901    0.797155
C      -1.333941   -0.570723   -0.040402
H       0.992030    1.772330   -0.035837
H       0.718575   -0.385978   -0.710154
H       1.099039   -0.845141    1.873441
H      -1.023278   -0.186752    3.257009
H      -0.744388    1.222152    2.194145
H      -3.140385    1.309962    1.294888
H      -2.125483   -2.189556    2.612468
H      -2.881330   -2.335743    0.991826
H      -0.305284   -2.642139    0.352949
H      -1.939575   -0.678281   -0.939062
