19

C      -0.166327    1.481762   -0.006900
C      -0.023647   -0.010348    0.123650
N       0.141712   -0.642959    1.222292
O       0.193486    0.225747    2.322736
C      -0.019915   -0.827722   -1.131906
C      -0.382485   -2.327474   -1.179486
C      -1.837427   -1.857948   -0.956619
N      -1.325075   -0.823781   -1.981733
C      -0.687539   -2.047806   -2.667329
H       0.808905    1.973093    0.091320
H      -0.592859    1.738490   -0.978457
H      -0.802325    1.874485    0.789735
H       0.294537   -0.386771    3.058943
H       0.832011   -0.520462   -1.753323
H       0.150046   -3.168713   -0.727019
H      -2.640574   -2.484362   -1.353428
H      -2.102785   -1.434446    0.011343
H       0.144012   -1.794039   -3.331231
H      -1.419348   -2.685444   -3.169403
