18

N      -0.180955    1.255549    0.001697
C      -0.133561   -0.098103    0.001211
C      -1.202691   -0.939520    0.094724
C      -2.636972   -0.529829    0.228588
O      -2.817346    0.608019    1.091053
C      -0.755221   -2.323821    0.058923
O      -1.442588   -3.323681    0.150710
C       0.778025   -2.321321   -0.109364
C       1.178927   -0.835110   -0.140644
H       0.667826    1.779551    0.134311
H      -1.042394    1.673954    0.326815
H      -3.055278   -0.211030   -0.733646
H      -3.225107   -1.391024    0.569903
H      -2.553882    0.332817    1.975887
H       1.236732   -2.868762    0.718765
H       1.044469   -2.853054   -1.027160
H       1.676274   -0.546812   -1.074398
H       1.864015   -0.563514    0.672237
