17

C      -0.059509    1.500816   -0.020839
C      -0.013014   -0.005991   -0.030380
C       0.292014   -0.771452    1.220931
N       1.297940   -0.682465    0.131694
C       1.232768   -1.814717   -0.731781
C       0.121898   -1.878121   -1.485199
C      -0.733316   -0.751250   -1.118136
N      -1.848116   -0.338841   -1.594193
O      -2.290383   -1.168358   -2.639259
H       0.587491    1.904663    0.761657
H       0.266781    1.901739   -0.984740
H      -1.084578    1.839772    0.154022
H       0.537656   -0.215408    2.121100
H      -0.182153   -1.736133    1.375840
H       2.058932   -2.514769   -0.705182
H      -0.126145   -2.622033   -2.226028
H      -3.113517   -0.743002   -2.900833
