16

C       0.064472    1.453054    0.122437
C      -0.061736   -0.062116   -0.011493
C      -1.497428   -0.551834   -0.071474
O       0.630215   -0.530881   -1.167599
C       1.904378   -0.983579   -0.768234
C       1.789608   -1.198050    0.734993
O       2.566097   -1.711532    1.483200
O       0.595641   -0.680376    1.115119
H       1.117076    1.747765    0.151672
H      -0.410948    1.940319   -0.732496
H      -0.416952    1.796949    1.041331
H      -1.984069   -0.149185   -0.963367
H      -1.513576   -1.642396   -0.122128
H      -2.050754   -0.224948    0.812084
H       2.149689   -1.919555   -1.277599
H       2.701238   -0.255018   -0.978225
