22

C       0.527431    0.923044    0.495514
C       0.160904   -0.452863   -0.082261
C      -1.322211   -0.787224    0.023270
C      -2.242068    0.097275   -0.803120
C      -1.771467   -2.247996    0.161672
C      -0.804207   -3.371360    0.172816
O       0.252427   -3.424910    0.765391
N      -1.922618   -1.265921    1.248254
C      -1.176799   -1.415060    2.495295
H       1.603551    1.096130    0.400748
H       0.016758    1.738967   -0.024608
H       0.273235    0.993752    1.557472
H       0.433205   -0.479599   -1.145003
H       0.754983   -1.227329    0.404474
H      -1.975965    0.053248   -1.864722
H      -3.281930   -0.213867   -0.683989
H      -2.168790    1.140678   -0.480259
H      -2.712366   -2.517541   -0.316838
H      -1.143684   -4.234586   -0.443477
H      -0.150626   -1.776641    2.388118
H      -1.174401   -0.444900    3.001480
H      -1.719560   -2.121512    3.130872
