18

O       0.098103    1.433945   -0.101398
C       0.033056    0.023764   -0.061524
C      -1.395954   -0.419859    0.059714
C      -2.448074    0.389833    0.007834
C      -3.832666   -0.173343    0.173095
C      -3.953062   -1.587095   -0.352205
N      -5.044985   -2.016330   -0.829089
O      -2.842978   -2.376547   -0.306383
C      -1.626756   -1.891379    0.272664
H       1.011005    1.689003   -0.260124
H       0.470162   -0.426591   -0.970852
H       0.612553   -0.381863    0.788400
H      -2.320926    1.456361   -0.132704
H      -4.109932   -0.177525    1.238994
H      -4.591607    0.427518   -0.330520
H      -4.939164   -2.989678   -1.123070
H      -0.833720   -2.490834   -0.187936
H      -1.625318   -2.131668    1.347597
