18

C       0.195019    1.205866   -0.072625
N      -0.014793   -0.228368    0.057093
C      -1.409938   -0.611914    0.042912
C      -1.546407   -2.152296    0.087555
N      -0.808586   -2.780005    1.170331
C       0.449894   -3.259196    0.961028
O       1.000833   -3.297515   -0.118794
C      -2.962916   -2.535592    0.145334
N      -4.083489   -2.808448    0.209717
H       1.267848    1.415720   -0.087161
H      -0.256691    1.650465   -0.977069
H      -0.233867    1.719484    0.795761
H       0.500922   -0.736525   -0.653599
H      -1.904987   -0.176218    0.921338
H      -1.974341   -0.258498   -0.840638
H      -1.111175   -2.564078   -0.830293
H      -1.143076   -2.671985    2.115197
H       0.910820   -3.634880    1.892688
