11

O      -0.079401    1.304085    0.009854
C      -0.023566   -0.015553    0.002408
N       1.060607   -0.740408   -0.006504
O       0.620647   -2.108465   -0.011936
C      -0.712580   -2.079710   -0.005673
N      -1.701411   -2.934340   -0.005779
C      -2.770547   -2.065720    0.003845
N      -2.512834   -0.760944    0.009791
N      -1.144324   -0.796360    0.003289
H       0.825698    1.647513    0.007578
H      -3.790804   -2.420550    0.006607
