21

C      -0.046332    1.545894   -0.027340
C      -0.056562    0.009723    0.026005
C       0.766438   -0.514039    1.211466
C      -1.469949   -0.514994    0.035685
N      -2.448108   -0.234994   -1.078830
C      -3.228605   -1.079338   -0.123453
C      -1.997355   -1.979428    0.191931
N      -2.096604   -1.861274    1.684880
C      -2.556793   -0.526041    1.178248
H       0.980426    1.921696   -0.077315
H      -0.580920    1.922638   -0.904907
H      -0.513350    1.972837    0.867819
H       0.397002   -0.361026   -0.904090
H       0.778523   -1.605979    1.244372
H       1.799097   -0.157650    1.137177
H       0.354354   -0.165528    2.163423
H      -2.769848    0.735566   -1.027720
H      -4.266220   -1.377169   -0.288336
H      -1.657593   -2.876069   -0.327074
H      -2.899586   -2.400470    2.020832
H      -2.880557    0.287748    1.831468
