21

C       0.282553    1.530083   -0.447369
C       0.103715    0.062622   -0.131096
C       1.310534   -0.864151    0.004340
C       0.488003   -0.501542    1.196674
C       0.879063    0.193348    2.498600
C      -0.007847   -0.874700    3.132084
C       0.194227   -1.699105    4.357365
C      -1.013654   -0.774605    4.227827
O      -0.328321   -1.470081    1.869109
H       1.163726    1.939747    0.058240
H       0.418016    1.690189   -1.522722
H      -0.585907    2.117462   -0.128734
H      -0.775293   -0.403244   -0.570321
H       1.216904   -1.876274   -0.374630
H       2.303556   -0.432658   -0.086783
H       1.938153    0.139110    2.761242
H       0.525372    1.221595    2.607633
H       0.015139   -2.765240    4.268749
H       0.988800   -1.425459    5.044348
H      -1.044382    0.130209    4.826653
H      -1.978346   -1.239613    4.055184
