14

C       0.012375   -1.208439    0.082584
C       0.047227   -0.009194    0.010128
C       0.051167    1.404232   -0.121182
C      -0.759601    2.282318   -1.094433
C       0.417264    3.315921   -1.101056
C       1.169997    2.402872   -0.120434
O       0.339603    2.219730    1.026137
C       2.581070    2.223847    0.017635
N       3.728922    2.100803    0.085440
H      -0.006070   -2.267974    0.158032
H      -0.909124    1.807105   -2.064746
H      -1.715308    2.621972   -0.692718
H       0.908167    3.390594   -2.072342
H       0.208613    4.312668   -0.709639
