18

C      -0.477100    1.531503   -0.114345
C       0.269584    0.211061    0.148715
C       0.937497   -0.317309   -1.036404
C       1.480605   -0.731116   -2.029919
C       2.143933   -1.255897   -3.204057
C       3.595899   -1.798376   -3.071104
O       3.237202   -3.031544   -3.721066
C       1.835301   -2.710836   -3.659968
H       0.212645    2.305224   -0.462298
H      -1.246225    1.397053   -0.879747
H      -0.959752    1.885834    0.801346
H       1.009744    0.361172    0.945405
H      -0.434921   -0.538018    0.532867
H       2.060559   -0.555663   -4.040435
H       4.375044   -1.253540   -3.614917
H       3.911593   -1.953055   -2.031855
H       1.305926   -3.303990   -2.903842
H       1.340485   -2.826429   -4.630253
