21

C      -0.085756    1.514600    0.056330
C       0.031143    0.021804    0.022933
C       0.109277   -0.840226   -1.225684
C       1.158844   -1.926107   -1.081147
C       1.035082   -2.159895    0.412723
C       0.668265   -0.867776    1.125560
C      -0.388643   -1.931261    0.891238
C      -1.141526   -2.792414    1.858090
C      -1.015150   -1.049391   -0.223597
H       0.897598    1.995799   -0.017777
H      -0.696166    1.879021   -0.776786
H      -0.553543    1.860935    0.985536
H      -0.119923   -0.389518   -2.185066
H       0.918410   -2.821495   -1.666481
H       2.159267   -1.582635   -1.369804
H       1.648002   -2.889264    0.930826
H       1.113749   -0.526901    2.051606
H      -1.928469   -2.227576    2.371777
H      -1.620181   -3.640129    1.351832
H      -0.472852   -3.199121    2.624218
H      -2.069090   -0.948398   -0.449922
