18

O       0.162485    1.388517   -0.103265
C       0.073914   -0.015214   -0.051090
C       0.338211   -0.637926    1.372164
C      -1.138653   -1.075959    1.421944
C      -2.278393   -0.694324    2.352942
C      -3.170921    0.137508    1.429396
C      -2.667452    0.301928    0.197867
C      -1.396769   -0.457171    0.077196
N      -1.503112   -1.907955    0.277668
H       1.092463    1.633162   -0.058735
H       0.624505   -0.479099   -0.884875
H       1.090454   -1.429642    1.467921
H       0.562935    0.164226    2.080060
H      -2.810345   -1.563311    2.757130
H      -1.927292   -0.106135    3.210441
H      -4.137653    0.510115    1.754246
H      -3.134113    0.864604   -0.601084
H      -0.696488   -2.404220   -0.098550
