18

C       0.315691    1.546990    0.135591
C      -0.210752    0.145292   -0.155604
N       0.555108   -0.471028   -1.240203
C       1.744357   -1.227509   -0.876234
C       0.511651   -1.910715   -1.351541
C      -0.368341   -2.956165   -0.664021
O      -0.505062   -3.645877   -1.946129
C       0.256973   -2.704663   -2.615199
O       0.537433   -2.677503   -3.767239
H       1.356242    1.512800    0.473748
H       0.271373    2.166992   -0.763609
H      -0.279990    2.023449    0.919668
H      -0.184118   -0.465746    0.764202
H      -1.256399    0.196022   -0.479496
H       2.598129   -1.128128   -1.540161
H       1.981294   -1.343400    0.181912
H       0.111849   -3.600672    0.075137
H      -1.339738   -2.609779   -0.303102
