23

C      -0.638237    1.422925   -0.154897
C       0.143721    0.123519   -0.160691
O       1.359090    0.194473   -0.953822
C       2.116472   -0.481329    0.068795
C       2.897542    0.491696    0.979753
C       1.756107    0.388523    2.053631
C       2.192003   -0.523349    3.209008
C       1.203803    1.694593    2.620254
C       0.910229   -0.472838    1.049271
H      -0.012442    2.275215    0.111626
H      -1.043552    1.606974   -1.155383
H      -1.478881    1.366431    0.544795
H      -0.505472   -0.665912   -0.571815
H       2.619375   -1.377565   -0.304221
H       3.877063    0.147336    1.324266
H       3.007416    1.474068    0.514302
H       2.982619   -0.046504    3.799479
H       1.351139   -0.738073    3.878887
H       2.579896   -1.480503    2.843869
H       0.266417    1.528466    3.163841
H       1.919851    2.129128    3.328003
H       1.017590    2.442795    1.848500
H       0.459017   -1.369692    1.476500
