20

C      -0.411091    1.537028    0.141508
C       0.094182    0.107278    0.002352
O       0.956213    0.057543   -1.164156
C       2.193325   -0.520953   -1.086071
N       2.942366   -0.636298   -2.100199
C       2.604627   -0.989876    0.279991
C       1.432040   -1.809051    0.897745
C       0.807787   -0.431545    1.241863
C       2.254864    0.128023    1.306770
H       0.400267    2.220632    0.407701
H      -0.847404    1.875564   -0.801728
H      -1.180909    1.592211    0.917732
H      -0.755518   -0.551835   -0.224572
H       2.473220   -0.256279   -2.925593
H       3.607325   -1.409776    0.241968
H       0.872293   -2.482332    0.242309
H       1.753561   -2.348760    1.791289
H       0.159443   -0.343672    2.116821
H       2.718234   -0.066017    2.276546
H       2.434613    1.165966    1.016998
