17

O       0.065813    1.396534   -0.110192
C       0.033108   -0.009486   -0.092481
C       0.751007   -0.648163    1.127977
C       0.015000   -1.969306    1.433284
C      -1.402486   -1.727097    0.945158
N      -1.951818   -0.421318    1.348734
C      -1.384765   -0.588723   -0.019567
C      -2.257383   -0.531003   -1.156038
N      -2.960728   -0.476076   -2.073183
H      -0.410269    1.697002    0.674076
H       0.494811   -0.328071   -1.032664
H       1.816652   -0.788618    0.937807
H       0.655287    0.039582    1.971883
H       0.441235   -2.805084    0.867351
H       0.050222   -2.236420    2.493702
H      -2.088747   -2.555732    0.805223
H      -2.967755   -0.445926    1.295112
