14

O      -0.086738    0.037712    0.011539
C       0.010596    1.220927    0.031802
O      -1.022251    2.144169    0.095356
C      -0.082440    3.270603    0.027838
C       0.391947    3.852585    1.374158
C       0.516515    2.778998    2.417972
C       1.576734    2.871175    1.362523
C       1.101636    2.300228   -0.005390
H      -0.337332    3.958269   -0.775361
H       0.369567    4.905480    1.623090
H       0.821903    3.141036    3.394028
H      -0.185658    1.952145    2.450724
H       2.616711    3.052184    1.598120
H       1.833343    2.264583   -0.808796
