19

C       0.099562    1.517879    0.009241
C      -0.015699   -0.010087   -0.024254
O      -1.384627   -0.412449    0.087176
C       0.620156   -0.574912   -1.318966
C       0.846880   -2.062472   -1.285871
C       1.125139   -2.706208   -0.152628
C       1.189155   -1.975180    1.134690
O       2.035852   -0.794151    1.186818
C       0.626705   -0.618363    1.212177
H       1.147068    1.829108    0.061019
H      -0.339824    1.961983   -0.892408
H      -0.427522    1.917402    0.880682
H      -1.890484    0.078325   -0.569048
H      -0.026755   -0.302462   -2.161891
H       1.577703   -0.067759   -1.491353
H       0.805995   -2.602063   -2.227717
H       1.298555   -3.777289   -0.136816
H       1.233331   -2.569639    2.044393
H       0.212502   -0.265544    2.157195
