17

C      -0.091964    1.442065   -0.027486
O      -0.010662    0.029631   -0.175652
C      -1.150528   -0.654246    0.040817
C      -1.248873   -2.038318   -0.009720
N      -2.607843   -2.244197    0.154187
C      -3.745628   -3.013981    0.704820
C      -4.495555   -1.632314    0.858040
C      -3.185136   -1.047162    0.366555
N      -2.352756   -0.029940    0.309382
H       0.910523    1.820398   -0.235584
H      -0.811235    1.874670   -0.730207
H      -0.393494    1.719723    0.988113
H      -0.527446   -2.799545   -0.244072
H      -4.171836   -3.737021    0.004958
H      -3.517692   -3.502616    1.655830
H      -5.367703   -1.498018    0.213448
H      -4.766288   -1.385152    1.887321
