21

C      -0.031548    1.627597   -0.085394
C      -0.045842    0.098507   -0.006764
C       0.920610   -0.441575    1.055097
C       0.850590   -1.949470    1.277248
C       1.171733   -2.795100    0.056859
C       1.466521   -2.443744    2.608018
C       0.020545   -2.754446    2.986246
O      -0.570010   -3.203547    3.915965
O      -0.497995   -2.317884    1.798438
H       0.965824    2.004814   -0.338318
H      -0.727327    1.990764   -0.847645
H      -0.321719    2.076094    0.871072
H      -1.056814   -0.252968    0.228529
H       0.208119   -0.316175   -0.989284
H       1.955075   -0.182231    0.791685
H       0.711290    0.052021    2.012648
H       2.183194   -2.575962   -0.300728
H       1.114341   -3.859569    0.300510
H       0.469755   -2.597189   -0.756712
H       2.110046   -3.322943    2.543116
H       1.942502   -1.685056    3.231912
