14

C      -0.171985    1.439140   -0.008337
N      -0.034230   -0.018699    0.001170
C      -0.005593   -0.668555   -1.226479
N      -0.094245   -0.031176   -2.312595
O       0.123801   -2.044754   -1.218311
N       0.225937   -2.797169   -0.053712
C       0.195357   -2.156733    1.048926
C       0.062047   -0.692449    1.204225
O       0.039806   -0.152616    2.289853
H       0.661656    1.883978   -0.555019
H      -1.099617    1.717595   -0.511900
H      -0.177537    1.768690    1.028450
H      -0.055812   -0.664915   -3.107875
H       0.275344   -2.749428    1.953529
