16

C       0.003729    1.652557    0.047430
C      -0.070886    0.137108    0.050949
O      -1.389765   -0.230101    0.296254
C       0.668367   -0.569505   -1.186673
N       1.694418   -0.983572   -0.222046
C       1.044242   -0.550752    0.913224
O       1.276828   -0.672825    2.083438
C      -0.083763   -1.652627   -1.794447
C      -0.739085   -2.550323   -2.255009
H       1.016986    1.996246   -0.176297
H      -0.687533    2.058453   -0.696644
H      -0.283455    2.030624    1.032016
H      -1.474351   -1.186613    0.198767
H       1.037462    0.127942   -1.945644
H       2.466420   -1.624140   -0.338052
H      -1.302105   -3.342185   -2.685133
