11

N       0.116694    1.305289   -0.817629
C      -0.019043    0.175657   -0.284259
O      -1.237969   -0.459018   -0.231826
C      -2.333435    0.192090    0.317027
O      -2.309394    1.220291    0.907494
C      -3.568910   -0.685585    0.052601
O      -4.648871   -0.364944    0.452687
C       1.031037   -0.643204    0.281928
N       1.902302   -1.266049    0.717164
H       1.085952    1.620550   -0.798630
H      -3.367394   -1.607228   -0.525686
