15

C      -0.078188    1.422104    0.025272
C      -0.010549   -0.028625    0.003255
C       0.050148   -1.232698   -0.016507
C       0.122531   -2.639057   -0.038473
N       1.191476   -3.392146   -0.035665
C       0.713305   -4.685362   -0.064175
N       1.597443   -5.754461   -0.132168
C      -0.650500   -4.655320   -0.081416
O      -1.036764   -3.338729   -0.063741
H       0.897251    1.861855   -0.208183
H      -0.799360    1.794659   -0.710409
H      -0.384951    1.790745    1.010548
H       2.512358   -5.501718    0.216252
H       1.261383   -6.601733    0.303164
H      -1.433844   -5.391112   -0.109086
