16

O      -0.017579   -0.007072   -0.205504
C       0.006111    1.172564   -0.034127
O      -1.104237    1.953254    0.112815
C      -0.635284    3.281127    0.392401
C      -0.393858    3.460285    1.894746
N       0.503938    2.399916    2.344724
C       1.689962    2.215092    1.508449
C       1.204994    2.133432    0.057549
O       0.598383    3.382997   -0.288344
H      -1.344667    3.998152   -0.021418
H       0.000504    4.483081    2.028013
H      -1.339980    3.383225    2.439994
H       0.741248    2.503158    3.322194
H       2.424731    3.036562    1.567136
H       2.185811    1.282478    1.796154
H       1.993771    1.897128   -0.654764
