15

O       0.027879    1.387895   -0.022679
C       0.066115    0.006569    0.052323
C      -0.411018   -0.721554    1.279267
C      -1.258039   -0.748217    0.002329
O      -2.346515    0.142360   -0.051958
C      -1.395509   -1.960525   -0.742969
C      -1.520335   -2.995319   -1.362105
C      -1.649091   -4.155257   -2.058088
C      -1.765879   -5.187060   -2.675495
H      -0.906102    1.640201   -0.007553
H       0.899538   -0.415236   -0.499178
H       0.084982   -1.638795    1.575326
H      -0.808200   -0.114647    2.086439
H      -3.051388   -0.198002    0.510008
H      -1.864653   -6.092940   -3.220304
