16

C      -0.010869    1.439483   -0.090480
N      -0.007690   -0.021110    0.021382
C      -0.019712   -0.627582    1.266001
N      -0.032683    0.041660    2.347086
C       0.007895   -0.782602   -1.123391
C       0.018380   -2.130616   -1.380614
C       0.032149   -2.177736   -2.794885
N       0.030588   -0.995188   -3.356707
O       0.014710   -0.092429   -2.272025
H       0.881922    1.781893   -0.619581
H      -0.893606    1.776516   -0.639502
H      -0.023411    1.837690    0.921588
H      -0.017006   -1.717872    1.197991
H      -0.040329   -0.582884    3.149408
H       0.017112   -2.955756   -0.691452
H       0.043491   -3.052522   -3.430772
