19

C      -0.005982    1.619505    0.164770
C      -0.003611    0.093969    0.039883
C       1.098638   -0.431443   -0.931000
C       2.002068   -0.716341    0.298810
C       0.743758   -0.616398    1.204225
N      -1.353810   -0.414033   -0.188717
C      -2.043051   -0.224622   -1.341070
O      -1.621136    0.361177   -2.318311
H       1.007174    1.995543    0.339114
H      -0.388895    2.066086   -0.755632
H      -0.636326    1.937477    1.002210
H       0.779707   -1.349029   -1.429373
H       1.457155    0.271231   -1.684462
H       2.542675   -1.664435    0.311485
H       2.716260    0.087930    0.492015
H       0.826729   -0.064868    2.144477
H       0.318004   -1.603774    1.409559
H      -1.817779   -0.889728    0.569425
H      -3.053219   -0.681907   -1.300515
