20

O      -0.036981    1.426507   -0.113007
C       0.032032    0.031481   -0.009766
C      -1.374804   -0.560498    0.088846
N      -2.195927   -0.019218   -0.991105
C      -2.410540   -0.857491   -2.169638
C      -3.510492   -0.613440   -1.197176
C       0.997712   -0.705136   -0.982598
O       1.665869   -1.342465    0.125846
C       1.003859   -0.477817    1.071911
H      -0.848842    1.609780   -0.609878
H      -1.331740   -1.661995    0.090667
H      -1.819497   -0.237656    1.038078
H      -2.395920   -0.343886   -3.126177
H      -1.961644   -1.848710   -2.175207
H      -3.797381   -1.441666   -0.552000
H      -4.311719    0.081020   -1.432391
H       0.580242   -1.435088   -1.685534
H       1.652895   -0.005959   -1.517769
H       1.660825    0.317616    1.446117
H       0.578692   -1.034052    1.916369
