17

O       0.013804    1.414921    0.311801
C       0.011328    0.045955   -0.062572
C      -1.360246   -0.544710    0.014963
C      -2.064025   -1.083215    1.211919
C      -1.909465   -1.978615   -0.019157
C      -2.836090   -1.434870   -1.111814
O      -2.314081   -0.089711   -0.951973
C      -1.269214   -3.244638   -0.013927
C      -0.737993   -4.325056   -0.023497
H      -0.572480    1.876027   -0.298376
H       0.409978   -0.092818   -1.078444
H       0.674466   -0.474470    0.634791
H      -1.429855   -1.369925    2.043857
H      -3.045995   -0.701940    1.478233
H      -2.600533   -1.826274   -2.106226
H      -3.914839   -1.490440   -0.927552
H      -0.266665   -5.276392   -0.028587
