14

N       0.038429    1.459608    0.154410
C      -0.002650    0.055709    0.038588
C      -1.159438   -0.662489    0.007492
N      -1.122969   -2.038776   -0.008404
C       0.014841   -2.841402   -0.027560
O      -0.042096   -4.059872   -0.056505
C       1.229353   -2.031452   -0.006550
F       2.369356   -2.710331   -0.020584
C       1.227010   -0.677402    0.033734
H       0.750665    1.880603   -0.429427
H      -0.852200    1.898430   -0.040943
H      -2.143085   -0.210875    0.006086
H      -1.988433   -2.559520   -0.023972
H       2.174028   -0.148230    0.070171
