8

N       0.006864    1.354389    0.009803
C       1.287731    1.775122   -0.000630
N       2.102223    0.737900   -0.014384
C       1.238676   -0.317190   -0.011554
N      -0.045281    0.001463    0.002941
H      -0.845989    1.889088    0.021192
H       1.569426    2.817255    0.002255
H       1.566106   -1.345782   -0.020419
