20

C      -0.261737    1.484338   -0.041914
C       0.105120   -0.009847    0.008525
C       0.797907   -0.503837   -1.225768
C       2.036935   -0.984235   -1.332753
C       2.378800   -1.393844   -2.736209
N       1.141576   -1.074007   -3.452399
C       0.110418   -0.522283   -2.574325
C       1.013142   -1.265157   -4.785162
O       1.882116   -1.718199   -5.504244
H       0.631254    2.101227   -0.181618
H      -0.952141    1.703667   -0.862422
H      -0.746333    1.792809    0.889024
H       0.746741   -0.199692    0.875600
H      -0.812686   -0.593393    0.167798
H       2.740615   -1.088229   -0.515606
H       3.230129   -0.842498   -3.158356
H       2.624371   -2.460869   -2.829252
H      -0.795114   -1.148419   -2.556078
H      -0.202528    0.481549   -2.895959
H       0.014318   -0.960077   -5.159390
