15

O      -0.194767    1.438786   -0.203031
C       0.020033    0.046711    0.004499
C      -1.364635   -0.669952   -0.007155
N      -1.569234   -1.294945   -1.347710
C      -0.312814   -1.267010   -1.967412
C       0.379489   -1.707314   -3.046844
O       1.679769   -1.314333   -2.921652
N       1.853933   -0.616255   -1.725692
C       0.664192   -0.599123   -1.192756
H       0.653727    1.838287   -0.424617
H       0.552197   -0.132261    0.946651
H      -1.373426   -1.459263    0.751659
H      -2.157309    0.043611    0.224894
H      -2.309823   -0.861028   -1.882909
H       0.147034   -2.258534   -3.942619
