15

C       0.023724    1.501873   -0.066787
N      -0.058889    0.049011    0.050529
C       0.005702   -0.551976    1.286537
O       0.055147    0.034209    2.339417
C      -0.080447   -0.748855   -1.154720
C      -1.384057   -0.507237   -1.953356
O      -1.446930   -0.400155   -3.141793
C       1.116385   -0.562223   -1.990688
N       2.068220   -0.393425   -2.621421
H       0.936237    1.795842   -0.595582
H      -0.841499    1.901028   -0.606598
H       0.038607    1.906524    0.944567
H      -0.005214   -1.657104    1.205467
H      -0.122463   -1.805659   -0.849391
H      -2.270801   -0.457327   -1.284907
