19

C       0.051994    1.237690    0.287451
N      -0.068388   -0.214256    0.355195
C      -1.130440   -0.768637   -0.015613
O      -2.318442   -0.250823   -0.490784
C      -2.903129   -1.590668   -0.602865
C      -1.608174   -2.220269   -0.031635
N      -0.948601   -3.198418   -0.869471
C      -1.678503   -2.755114    1.403373
O      -0.372631   -2.905811    1.924736
H       0.937459    1.496884   -0.302497
H      -0.822198    1.733968   -0.148513
H       0.212415    1.632805    1.296492
H      -3.808666   -1.671999    0.003692
H      -3.111168   -1.845439   -1.644415
H      -0.575712   -2.768565   -1.710542
H      -0.156563   -3.570924   -0.351520
H      -2.293925   -2.082904    2.020553
H      -2.139996   -3.748089    1.406434
H       0.070356   -2.049467    1.820976
