18

C       0.112224    1.502752   -0.201429
C      -0.037332    0.032011    0.120845
O       1.156209   -0.758377    0.168781
C       0.411402   -0.606098    1.384142
C       1.062567    0.125538    2.528430
C       2.133358   -0.731301    3.202501
O       2.650061    0.021800    4.285612
C      -1.145233   -0.614835   -0.572917
N      -2.038557   -1.101845   -1.121105
H       0.963132    1.929500    0.329278
H       0.273956    1.632417   -1.275211
H      -0.794657    2.048456    0.074997
H      -0.124253   -1.513759    1.669457
H       1.523027    1.058278    2.195177
H       0.297400    0.382045    3.270812
H       1.689767   -1.680044    3.546369
H       2.914934   -0.979537    2.468859
H       3.355414   -0.485420    4.697810
