17

C      -0.277683    1.524892    0.058637
C       0.086938    0.034795   -0.040528
C       0.738736   -0.481549    1.218633
C       0.117550   -1.410797    2.051223
C       0.774704   -1.831121    3.206897
C       2.028378   -1.317319    3.502194
C       2.547033   -0.395291    2.596305
F       3.750213    0.120904    2.842558
N       1.955103    0.018903    1.503513
H       0.612090    2.117118    0.287197
H      -0.700943    1.883804   -0.884133
H      -1.014108    1.698635    0.849965
H      -0.806120   -0.559312   -0.260101
H       0.785693   -0.108072   -0.872712
H      -0.862140   -1.798429    1.797275
H       0.312137   -2.554608    3.870087
H       2.591481   -1.602870    4.381234
