17

C      -0.134863    1.527982    0.098960
C       0.041104    0.015089   -0.052107
C      -1.294251   -0.728207   -0.008631
C      -1.185285   -2.216911   -0.166118
N      -0.097173   -2.845168   -0.265674
O      -2.461325   -2.789414   -0.227005
C      -2.696216   -3.959976    0.429639
O      -3.717031   -4.560111    0.307164
H       0.831196    2.039921    0.064858
H      -0.758092    1.940024   -0.702583
H      -0.612274    1.782666    1.051903
H       0.547348   -0.215484   -0.995285
H       0.692989   -0.372417    0.737397
H      -1.823714   -0.530367    0.933924
H      -1.972183   -0.366342   -0.793365
H      -0.221449   -3.845310   -0.419507
H      -1.859399   -4.251315    1.087420
