16

C      -0.082795    1.636619   -0.001731
C      -0.025119    0.144721   -0.341848
C      -1.296717   -0.591059    0.028236
C      -1.275839   -2.135023    0.041619
C      -1.522945   -1.971477    1.526198
N      -1.679170   -2.758528    2.489755
O      -1.531620   -0.592634    1.484145
H       0.856328    2.135052   -0.257837
H      -0.888288    2.137581   -0.549797
H      -0.264646    1.779681    1.067200
H       0.144334    0.003358   -1.417446
H       0.817691   -0.329547    0.176162
H      -2.169008   -0.154317   -0.469857
H      -2.076799   -2.637019   -0.502953
H      -0.318001   -2.593224   -0.213371
H      -1.833324   -2.247464    3.361060
