20

O      -0.398200    1.551780    0.037159
N      -0.134170    0.186151    0.258894
C      -1.154884   -0.522907    0.013492
C      -2.574982   -0.282753   -0.453381
C      -2.799501   -1.827077   -0.366077
C      -1.321601   -2.019916    0.114435
C      -0.395914   -3.023749   -0.633674
C      -0.523052   -3.999522    0.565828
C      -1.037470   -2.813461    1.423576
H       0.445905    1.959391    0.258324
H      -3.176966    0.325901    0.227650
H      -2.653486    0.154893   -1.452853
H      -3.552384   -2.132472    0.364479
H      -3.026179   -2.304223   -1.322510
H      -0.735978   -3.367387   -1.614552
H       0.614988   -2.618917   -0.731085
H      -1.297638   -4.753577    0.401351
H       0.385335   -4.504781    0.900761
H      -0.235616   -2.340110    1.996526
H      -1.889891   -2.989157    2.085664
