18

C       0.008489    1.410130    0.078406
N      -0.010468   -0.034519    0.012690
C      -0.167321   -0.820968   -1.103897
N      -0.152444   -2.096414   -0.813875
C       0.027726   -2.166915    0.553432
C       0.063494   -3.460558    1.303788
O       0.951014   -3.410881    2.429906
C       0.123657   -0.896362    1.079568
N       0.218499   -0.431188    2.397174
H       1.022082    1.799212    0.234562
H      -0.373664    1.814451   -0.860695
H      -0.628282    1.754999    0.898113
H      -0.272128   -0.386951   -2.087416
H      -0.912045   -3.713165    1.737267
H       0.328562   -4.270920    0.611410
H       1.828285   -3.219840    2.079906
H       0.382381   -1.225959    3.007953
H       0.973018    0.235525    2.528889
