16

C      -0.060736    1.507716   -0.031429
C       0.018724    0.012678   -0.052829
C       0.928272   -0.893433   -0.890023
C       0.058220   -2.057007   -0.356282
O       0.402452   -2.115570    1.060813
C      -0.296588   -0.882234    1.190401
C      -0.646387   -0.365478    2.469730
N      -0.939147    0.084120    3.495120
C      -1.094969   -1.023812   -0.074749
H       0.886819    1.943266    0.302824
H      -0.281526    1.901938   -1.029097
H      -0.844082    1.854946    0.649398
H       0.765497   -0.720013   -1.957141
H       1.996766   -0.939145   -0.660664
H      -0.006885   -3.035004   -0.824765
H      -2.158278   -0.982865   -0.266286
