21

C      -0.083217    1.552095    0.014582
C       0.068081    0.030869   -0.028163
C       0.977315   -0.545822   -1.128070
C       2.379590   -0.040096   -0.700202
C       2.164847   -1.010782    0.476893
C       1.427691   -1.967507   -0.505145
C       0.452841   -2.727636    0.345162
C       0.162703   -1.965532    1.406947
C       0.833818   -0.619245    1.204655
H       0.863384    2.073842    0.177534
H      -0.515423    1.931175   -0.918497
H      -0.756356    1.839971    0.829694
H      -0.934485   -0.402064   -0.095003
H       0.626424   -0.476585   -2.158092
H       3.168850   -0.398165   -1.367109
H       2.526520    1.023964   -0.507327
H       2.976895   -1.370338    1.111689
H       2.056481   -2.533832   -1.192987
H       0.045264   -3.702835    0.108983
H      -0.545744   -2.184150    2.197135
H       0.913293    0.026201    2.080604
