23

C      -0.082531    1.489289    0.011913
C      -0.021486   -0.042972    0.001205
C      -1.423827   -0.600135    0.234459
C       0.842123   -0.598725   -1.194087
C       2.100833   -0.389077   -0.300857
C       1.133974   -0.619971    0.889741
O       0.919088   -2.005588    1.132227
C       1.037193   -2.825203   -0.033669
C       0.615127   -2.111678   -1.341994
H       0.881021    1.964915   -0.186264
H      -0.785858    1.845962   -0.749511
H      -0.438269    1.853983    0.982458
H      -2.074494   -0.393382   -0.623683
H      -1.422601   -1.675412    0.417078
H      -1.879718   -0.124154    1.110213
H       0.777468   -0.075090   -2.152366
H       2.938922   -1.079847   -0.415085
H       2.484690    0.630024   -0.327290
H       1.339002   -0.162867    1.861773
H       2.077270   -3.167655   -0.124788
H       0.424467   -3.711848    0.154726
H      -0.431903   -2.314285   -1.587799
H       1.217839   -2.508307   -2.167297
