21

C      -0.353994    1.340035    0.038039
C       0.070387   -0.127083   -0.111290
C       0.944886   -0.331923   -1.360326
O       0.305790    0.084295   -2.559293
C       0.802815   -0.638177    1.115178
C       0.057102   -1.194753    2.318382
O      -1.328007   -1.410560    2.241484
C       0.846703   -2.122858    1.435634
O       0.130386   -3.016780    0.639232
H       0.511870    1.977459    0.252474
H      -0.811996    1.697620   -0.887342
H      -1.070547    1.476647    0.856021
H      -0.828072   -0.740778   -0.253004
H       1.852555    0.279045   -1.282839
H       1.253413   -1.384483   -1.414682
H      -0.402356   -0.541384   -2.742197
H       1.703068   -0.079370    1.365543
H       0.418573   -0.959893    3.317634
H      -1.770517   -0.566121    2.108152
H       1.772137   -2.549057    1.812497
H      -0.788636   -2.961669    0.936205
