20

C      -0.099915    1.577162   -0.023901
C       0.022003    0.051547    0.020601
C       0.802236   -0.547928   -1.192538
C       1.480414   -1.859902   -0.697401
C       1.631843   -1.590498    0.773910
C       2.294160   -2.056456    1.881699
N       1.881126   -1.281011    2.945557
C       0.971720   -0.330928    2.530067
C       0.803715   -0.509863    1.179208
H       0.890139    2.045686   -0.016243
H      -0.624885    1.905122   -0.927916
H      -0.657215    1.957222    0.838966
H      -0.995125   -0.369666    0.026599
H       0.161937   -0.703135   -2.066159
H       1.582491    0.165444   -1.484407
H       0.830364   -2.726561   -0.880277
H       2.421471   -2.058557   -1.220705
H       3.012982   -2.847656    2.023793
H       2.228573   -1.367603    3.884353
H       0.548496    0.369446    3.232377
