16

N       0.067784    1.282689   -0.550435
C       0.118293    0.058997   -0.207629
C       1.237966   -0.980366   -0.125829
N       0.616265   -2.230178    0.333417
C      -0.621032   -1.954840    0.491568
N      -1.004966   -0.650228    0.209722
C      -2.340053   -0.075146    0.270465
C      -3.095015   -0.517065    1.437830
C      -3.727605   -0.895317    2.386089
H       0.989304    1.627747   -0.811765
H       1.715155   -1.124941   -1.101864
H       2.022175   -0.664441    0.571905
H      -1.369260   -2.659310    0.837175
H      -2.198338    1.011223    0.279861
H      -2.901579   -0.309145   -0.644895
H      -4.286210   -1.215586    3.230925
