18

C      -0.002042    1.536109   -0.012690
C      -0.030860    0.004252    0.016993
C      -1.415442   -0.552236   -0.083727
C      -1.962879   -2.004074   -0.000147
C      -3.139797   -1.445377    0.782470
N      -2.589439   -0.025489    0.709244
C      -2.645098   -0.101310   -0.799345
C      -3.225200   -1.550140   -0.721142
O      -3.994569   -2.306365   -1.558141
H       1.017045    1.906980    0.127016
H      -0.370255    1.920314   -0.969527
H      -0.632322    1.946600    0.780833
H       0.573923   -0.404066   -0.803686
H       0.425274   -0.359641    0.947548
H      -1.503542   -2.982229    0.010160
H      -3.726028   -1.846212    1.600148
H      -2.855931    0.769219   -1.410884
H      -4.910720   -2.013289   -1.483766
