20

C      -0.129774    1.548819   -0.035923
C       0.012507    0.031402    0.000713
C       1.137631   -0.555732   -0.877982
N       1.278997   -1.990351   -0.671374
C       1.883641   -1.094232    0.319889
C       3.341153   -1.223916    0.641749
C       0.792137   -0.533981    1.213931
C       0.887853   -0.006191    2.573825
O       0.219135   -1.247455    2.302964
H       0.832780    2.041704    0.138082
H      -0.505227    1.880680   -1.009731
H      -0.831709    1.899905    0.727157
H      -0.959879   -0.448934   -0.163208
H       1.528100   -0.119122   -1.790685
H       0.419866   -2.426569   -0.339503
H       3.898729   -1.517432   -0.251104
H       3.751115   -0.281134    1.018920
H       3.503160   -1.993061    1.405815
H       1.822911   -0.093192    3.126416
H       0.243466    0.814571    2.886337
