21

C      -0.218008    1.460486    0.554304
C      -0.043926    0.011545    0.148900
C       1.296746   -0.462932   -0.360076
C       0.810023   -0.899549    0.997582
C      -1.253803   -0.621847   -0.487969
O      -2.379276   -0.575410    0.385255
C      -3.532883   -0.251961   -0.384009
C      -3.008373   -0.200742   -1.828601
O      -1.629401    0.076023   -1.655307
H       0.702763    1.852413    0.996252
H      -0.471026    2.076995   -0.313247
H      -1.020886    1.560733    1.290815
H       1.315147   -1.196999   -1.158901
H       2.096113    0.267901   -0.411473
H       1.276528   -0.469545    1.877127
H       0.496180   -1.930648    1.122654
H      -1.046124   -1.680083   -0.738799
H      -4.308193   -1.013810   -0.243883
H      -3.928897    0.717549   -0.057050
H      -3.152769   -1.165848   -2.338204
H      -3.451497    0.591582   -2.435464
