15

C      -0.062148    1.569523   -0.187970
C      -0.013571    0.057132    0.036582
O      -1.375907   -0.455004    0.168978
C      -1.882616   -0.466418    1.399663
O      -1.339222   -0.091379    2.409973
C      -3.309287   -1.031983    1.437969
O      -3.932395   -1.377598    0.475664
C       0.611321   -0.661819   -1.064323
C       1.157802   -1.225060   -1.972781
H       0.952578    1.952618   -0.322294
H      -0.645976    1.800986   -1.081653
H      -0.510054    2.058244    0.680233
H       0.505135   -0.159122    0.975526
H      -3.694746   -1.071695    2.476395
H       1.637347   -1.732867   -2.773248
