17

C       0.009848    1.487673   -0.101252
N       0.025698    0.027892   -0.031722
C      -1.145520   -0.675380    0.630766
C      -0.730325   -2.122786    0.392857
C       0.571148   -2.101364    0.707706
C       0.787010   -0.639490    1.098538
C      -0.451389   -0.470568    2.049611
O      -0.530960    0.785043    2.669875
H       1.003061    1.819829   -0.424792
H      -0.696221    1.777953   -0.888313
H      -0.251917    2.018026    0.820336
H      -2.157639   -0.343144    0.398167
H      -1.363557   -2.938388    0.075729
H       1.308183   -2.890670    0.716490
H       1.781620   -0.274228    1.353063
H      -0.616163   -1.279277    2.774744
H      -1.314154    0.795523    3.228805
