16

N       0.277993    0.426373    1.305387
C       0.078260   -0.001897    0.129232
O       1.055328    0.207153   -0.838697
C       1.396146   -0.628117   -1.873865
O       2.176750   -0.226491   -2.686607
C       0.771422   -2.003135   -1.889053
C      -0.713333   -1.960704   -2.279635
C      -1.601284   -1.319697   -1.256915
C      -1.242046   -0.542544   -0.232062
H       1.218993    0.816324    1.385363
H       1.336569   -2.589914   -2.614316
H       0.875412   -2.470710   -0.903462
H      -0.833351   -1.464166   -3.252972
H      -1.059179   -2.989586   -2.436777
H      -2.657897   -1.561786   -1.345246
H      -1.994638   -0.237205    0.486771
