14

N       0.116760    1.386135    0.141242
C      -0.026711    0.007995    0.024266
C      -1.173747   -0.698796    0.016134
C      -1.157700   -2.157533   -0.010559
N      -2.245681   -2.830738   -0.021104
N       0.120392   -2.784610   -0.037850
C       1.142622   -2.046695   -0.027887
F       2.361465   -2.569592   -0.015759
N       1.187445   -0.679426   -0.039793
H       0.754814    1.792501   -0.533580
H      -0.769670    1.871847    0.124488
H      -2.134333   -0.201508    0.015873
H      -2.016448   -3.825573   -0.051518
H       2.041514   -0.218371    0.235177
