17

C       0.033340    1.507971   -0.261551
O       1.455037    1.552755    0.109790
C       1.222395    0.381939    0.912856
C       1.782356   -1.000157    1.327309
N       0.499746   -1.036423    2.181266
C       0.723074    0.447256    2.371047
C      -0.635993   -0.950454    1.171680
C      -0.006402   -0.002235    0.118844
H      -0.559155    2.181566    0.368233
H      -0.107211    1.753984   -1.316223
H       1.867440   -1.776427    0.563027
H       2.640022   -1.010135    2.001399
H       1.515311    0.630345    3.099579
H      -0.170552    1.023655    2.622947
H      -0.850153   -1.939353    0.761024
H      -1.526234   -0.589442    1.690649
H       0.278403   -0.559256   -0.778330
