20

O      -0.084311    1.462919   -0.020715
C       0.009841    0.049792    0.089456
C      -1.397849   -0.530062    0.006042
C      -2.067281   -0.252081   -1.371491
C      -1.911824   -1.561461   -2.136334
C      -1.109310   -2.540355   -1.377839
C      -1.387508   -2.065304    0.073032
C      -2.817417   -2.609833   -0.156010
N      -2.572121   -2.804320   -1.626481
H       0.806192    1.824344   -0.045902
H       0.629325   -0.371640   -0.719650
H       0.472436   -0.243384    1.045591
H      -1.988746   -0.107197    0.826694
H      -3.118979    0.033758   -1.267464
H      -1.567494    0.570606   -1.889449
H      -1.879885   -1.549156   -3.220537
H      -0.321152   -3.182971   -1.752452
H      -0.812276   -2.492945    0.895289
H      -2.985883   -3.592009    0.291749
H      -3.659071   -1.953327    0.095101
