16

O       0.155885    1.491480    0.095254
C       0.042128    0.107186    0.037305
C       0.053323   -0.657158    1.374633
C      -1.003573    0.064954    2.228962
C      -2.131815    0.141717    1.153992
C      -1.369324   -0.585123    0.021525
O      -0.733617   -1.700584    0.708396
C      -2.064516   -0.915740   -1.202731
N      -2.609659   -1.128292   -2.199622
H       0.258038    1.839202   -0.796154
H       0.697957   -0.365578   -0.698787
H       0.966619   -1.023408    1.839271
H      -1.285804   -0.536129    3.094549
H      -0.666834    1.048162    2.562127
H      -3.034359   -0.404423    1.429904
H      -2.391887    1.163776    0.874621
