23

C      -0.094763    1.474793    0.046988
C      -0.171479   -0.059090    0.021492
C      -1.630175   -0.541144   -0.037761
C       0.610843   -0.614753   -1.166997
C       2.176987   -0.613736   -1.234699
C       2.194350   -1.795702   -0.223146
C       1.056766   -2.102330   -1.249975
O       0.159614   -3.157153   -1.252753
C       2.054433   -1.670144   -2.370160
H       0.938862    1.825352    0.134127
H      -0.515586    1.903326   -0.870668
H      -0.660495    1.882550    0.891465
H       0.261941   -0.429587    0.957801
H      -2.125067   -0.174842   -0.945505
H      -1.683179   -1.633121   -0.047378
H      -2.200809   -0.172505    0.821405
H       0.146840   -0.260467   -2.097523
H       2.833710    0.252964   -1.230991
H       3.072285   -2.447617   -0.265864
H       1.909507   -1.591421    0.809109
H       0.655418   -3.982511   -1.284387
H       1.616481   -1.333508   -3.313393
H       2.925664   -2.312466   -2.528915
