18

C      -0.006057    1.531339   -0.056400
C      -0.043440    0.039243   -0.007137
C       0.546694   -1.013588   -0.925648
N       1.200701   -0.720730    0.359118
C       0.733346   -2.051920    0.900172
C      -0.341016   -2.112812   -0.198692
C      -0.966531   -3.368126   -0.734316
C      -1.208715   -0.889882    0.180192
O      -2.391968   -0.726214    0.296506
H       0.934225    1.879684   -0.491138
H      -0.838442    1.914627   -0.653845
H      -0.088846    1.952462    0.950524
H       0.975853   -0.903326   -1.912615
H       1.545393   -2.771862    0.766291
H       0.405544   -2.044121    1.946446
H      -1.538835   -3.868732    0.053994
H      -1.660988   -3.146327   -1.550589
H      -0.211582   -4.070281   -1.102017
