20

C       0.363530    1.351671   -0.291100
C      -0.154512   -0.042367    0.084364
C       0.552341   -0.610853    1.298703
C       0.700738   -2.104436    1.550550
C       0.260438   -3.138055    0.524461
N       1.072485   -3.238093   -0.683651
C       2.045684   -2.453751   -0.851718
O       2.502637   -1.443798   -0.064793
C       1.902078   -1.273363    1.200562
H       1.425435    1.312322   -0.551592
H      -0.182397    1.757530   -1.148366
H       0.248181    2.055005    0.541038
H      -1.230507    0.006963    0.294205
H      -0.045170   -0.714814   -0.771922
H       0.424886   -0.011680    2.198296
H       0.622736   -2.428924    2.583466
H       0.271080   -4.126568    0.998285
H      -0.778845   -2.972953    0.211101
H       2.662339   -2.515249   -1.746185
H       2.665912   -1.061494    1.939917
