19

C       0.125486    1.319484   -0.303926
N      -0.016564   -0.067032    0.130249
C       0.699901   -0.347721    1.370814
C      -1.360616   -0.560034    0.100457
C      -1.893585   -1.020684   -1.256512
C      -1.541861   -2.041543   -0.231080
C      -2.386204    0.008635    1.018331
O      -2.186099    0.885673    1.823392
H       1.188528    1.540230   -0.449965
H      -0.380755    1.454844   -1.264777
H      -0.284876    2.047394    0.411228
H       0.338418    0.238346    2.228458
H       0.606552   -1.410775    1.613797
H       1.763329   -0.128099    1.225894
H      -2.939640   -0.843457   -1.481511
H      -1.208906   -0.874521   -2.082647
H      -0.617493   -2.591069   -0.358414
H      -2.340602   -2.582127    0.264950
H      -3.400037   -0.450116    0.909861
