21

C      -0.106644    1.476144   -0.009147
N       0.051804    0.034165    0.021782
C       0.758415   -0.506814   -1.152213
C       1.409760   -1.775056   -0.630485
C       1.021269   -1.991468    0.769784
N       2.457315   -1.682615    0.436140
C       2.294690   -0.344368    1.097780
C       0.743029   -0.529103    1.193108
C       0.057673   -0.245317    2.511299
H       0.850325    2.032212   -0.012023
H      -0.653892    1.757974   -0.914478
H      -0.694672    1.814060    0.848318
H       0.055382   -0.724748   -1.966010
H       1.510063    0.195108   -1.553919
H       1.579540   -2.606931   -1.304047
H       0.693793   -2.911148    1.239858
H       2.797550   -0.377778    2.067818
H       2.678038    0.508731    0.526487
H       0.119866    0.814075    2.780671
H      -1.000010   -0.523215    2.461456
H       0.530271   -0.816577    3.315599
