19

C       0.330928    1.585906   -0.550890
C       0.202196    0.158011   -0.292863
C       0.143996   -1.029392   -0.083765
C      -0.034332   -2.439510    0.192232
C       0.019409   -2.938319    1.674377
C      -1.219085   -3.833503    1.375649
O      -2.244160   -3.915193    2.317342
C      -1.508885   -2.971489    0.110625
O      -2.466495   -1.990145    0.452736
H       1.356928    1.841012   -0.837724
H      -0.328838    1.906478   -1.364491
H       0.077559    2.177017    0.335876
H       0.613026   -3.047566   -0.447407
H       0.940186   -3.424124    2.001822
H      -0.236300   -2.138371    2.371939
H      -0.922603   -4.852742    1.109074
H      -2.721624   -3.076503    2.244993
H      -1.797061   -3.484228   -0.814559
H      -2.114070   -1.128780    0.188077
