20

C       0.040969    1.506560   -0.239717
C      -0.040844   -0.005156    0.037138
C       0.666233   -0.435815    1.300159
C       0.005222   -0.912763    2.353445
C       0.648174   -1.356371    3.629984
N       2.092942   -1.236981    3.598892
C       2.878220   -0.778238    2.583508
O       4.091603   -0.737363    2.678962
C       2.167714   -0.311826    1.319983
H       1.074463    1.841886   -0.368603
H      -0.503071    1.759230   -1.154782
H      -0.396989    2.078157    0.584624
H      -1.092864   -0.304944    0.094943
H       0.391773   -0.543829   -0.817780
H      -1.077290   -1.005099    2.325928
H       0.242377   -0.768226    4.469021
H       0.366058   -2.401052    3.837458
H       2.613198   -1.530333    4.413040
H       2.611377   -0.869999    0.484475
H       2.481957    0.726717    1.156213
