18

O      -0.197205    0.066877   -0.641001
C      -0.157723    1.059247    0.052826
N       0.971705    1.783095    0.314261
C       2.282242    1.267908   -0.009199
C       2.556060    0.880707   -1.496823
C       3.908631    1.636265   -1.432265
C       3.421720    2.336279   -0.136255
C       2.706548    0.165963    0.950753
O       2.103750   -0.142523    1.943771
H      -1.055578    1.512803    0.516681
H       0.917140    2.441464    1.077949
H       2.565979   -0.185053   -1.727747
H       1.830116    1.368731   -2.147436
H       4.755625    0.969618   -1.250398
H       4.158052    2.283021   -2.275062
H       2.983664    3.317573   -0.333672
H       4.121869    2.421374    0.698795
H       3.662706   -0.334105    0.673242
