16

O      -0.029969    0.597643    1.160006
C      -0.091351    1.490781    0.369653
C      -1.293540    1.954956   -0.451951
C      -0.888324    3.351308   -0.939667
C      -1.360168    4.444639    0.047021
C      -0.954472    5.784349   -0.371817
N      -0.617243    6.830432   -0.728480
C       0.647405    3.217931   -0.968920
O       0.978464    2.279993    0.066820
H      -1.423780    1.258780   -1.287378
H      -2.202762    1.918977    0.150717
H      -1.276791    3.581154   -1.933711
H      -2.451596    4.420085    0.136269
H      -0.954948    4.252286    1.047932
H       0.996971    2.824321   -1.929906
H       1.173431    4.151965   -0.760829
