14

C      -0.031285    1.498727   -0.004932
C      -0.009037    0.001623   -0.036449
N      -0.042007   -0.634614   -1.171186
C      -0.020747   -2.005926   -1.180466
C       0.034049   -2.728650   -0.034485
N       0.068797   -2.066585    1.159572
C       0.051279   -0.677264    1.275791
O       0.083907   -0.123695    2.361596
H       0.858272    1.884641    0.505083
H      -0.077545    1.891573   -1.020868
H      -0.889305    1.857237    0.574346
H      -0.049714   -2.491374   -2.147614
H       0.052455   -3.810731    0.000610
H       0.109933   -2.571444    2.034687
