18

C       0.465113    0.832030    0.597812
C      -0.528819    0.104883   -0.279994
O      -1.724650    0.163815   -0.109393
C       0.040066   -0.761420   -1.412862
C       0.153822   -2.226517   -0.979785
C      -1.129327   -3.025765   -0.798489
C      -0.236885   -3.323934   -1.963184
C       1.244541   -2.511833   -0.082132
N       2.127279   -2.713347    0.639190
H       1.194966    0.125417    1.009632
H       1.031557    1.553973   -0.002664
H      -0.053648    1.350457    1.404605
H      -0.662241   -0.703110   -2.248256
H       1.016009   -0.396680   -1.747216
H      -1.164594   -3.738422    0.016369
H      -2.045448   -2.470521   -0.960439
H      -0.536290   -2.996811   -2.952498
H       0.344264   -4.238088   -1.943963
