20

C       0.097840    1.496092    0.334529
C      -0.084669   -0.022873    0.307841
C      -1.349910   -0.459360   -0.446308
C      -1.498808   -1.961471   -0.472642
O      -1.925543   -2.610505    0.736282
C      -2.766853   -2.705704   -0.407748
C      -4.130081   -2.035075   -0.325297
C      -5.124477   -2.890555    0.323421
N      -5.907608   -3.575767    0.824969
H       1.005156    1.776428    0.877761
H       0.176194    1.905192   -0.679014
H      -0.748718    1.988908    0.825327
H       0.791467   -0.492563   -0.157631
H      -0.135530   -0.413287    1.330811
H      -2.226166    0.004819    0.018245
H      -1.307772   -0.095673   -1.482311
H      -0.671195   -2.478996   -0.964350
H      -2.797104   -3.697578   -0.861105
H      -4.060326   -1.096030    0.228963
H      -4.485103   -1.797746   -1.335671
