17

C       0.019704    1.475255    0.214174
C       1.388328    2.105905   -0.067872
O       2.346114    2.029168    0.971718
C       2.476677    0.825854    1.712194
C       2.119173   -0.484686    1.011653
O       0.732008   -0.764587    1.008840
C      -0.014774   -0.046826    0.047203
H      -0.326091    1.756356    1.215719
H      -0.694651    1.900725   -0.502706
H       1.791542    1.671132   -0.998882
H       1.267593    3.179123   -0.248515
H       3.529944    0.782987    2.016054
H       1.869837    0.876983    2.629710
H       2.533482   -0.512042   -0.009298
H       2.582467   -1.299542    1.578698
H      -1.041329   -0.413693    0.145013
H       0.334509   -0.302081   -0.969347
