16

N       0.090633   -1.201476   -0.363046
C       0.060377   -0.070393   -0.130646
C       0.046825    1.365257    0.117580
C      -0.377704    2.287329   -1.057886
O       0.822184    3.074307   -0.923796
C       1.380819    2.179222    0.060000
C       1.496849    2.795706    1.444724
C       0.035870    2.814839    1.914564
O      -0.560113    1.631995    1.360057
H      -0.438582    1.787571   -2.030744
H      -1.289785    2.862820   -0.869127
H       2.278518    1.672953   -0.303198
H       2.105832    2.148420    2.083736
H       1.949461    3.789125    1.409423
H      -0.088029    2.759909    2.997491
H      -0.480940    3.709307    1.543615
