15

C      -0.015285    1.465651    0.114006
C       1.310418    0.735705   -0.019873
N       2.066695    0.348563    1.165428
C       1.209258   -0.424749    1.951711
C       1.056838   -1.073438    3.155089
N      -0.147464   -1.729055    3.113018
N      -0.750057   -1.516434    1.976339
N       0.084101   -0.720473    1.265763
C       0.005610   -0.041044    0.005561
H      -0.293014    1.898194    1.068714
H      -0.348732    2.014391   -0.759630
H       1.892474    0.851843   -0.926184
H       2.560248    1.093385    1.638953
H       1.701089   -1.124007    4.015743
H      -0.411936   -0.586084   -0.830088
