19

N       0.112785   -1.122912    0.315574
C       0.083252    0.028933    0.237582
C       0.040088    1.492520    0.165931
N       1.361191    2.048370   -0.088605
C       1.363551    3.505179   -0.128151
C       2.793648    3.996067   -0.261097
C       3.065321    5.488386    0.022403
C       3.915028    4.965108    1.198917
O       3.589917    3.593015    0.882483
H      -0.628599    1.774988   -0.657351
H      -0.436368    1.863096    1.093107
H       2.008190    1.747829    0.635114
H       0.780911    3.843907   -0.996152
H       0.907436    3.961752    0.771019
H       3.230698    3.607627   -1.189277
H       3.611763    6.022519   -0.755349
H       2.184067    6.067904    0.305521
H       4.992529    5.152564    1.123587
H       3.576035    5.245812    2.202841
