21

C      -1.812260   -1.611628   -4.373963
C      -1.417034   -1.343456   -2.919602
C      -1.796441   -2.499696   -1.992071
C      -1.421807   -2.271446   -0.546375
O      -1.719911   -3.250355    0.364472
C      -2.363742   -4.452103   -0.030883
N      -0.847433   -1.209461   -0.170238
C      -0.517077   -1.060271    1.239191
H      -1.531736   -0.772784   -5.018167
H      -1.319180   -2.508884   -4.765841
H      -2.893632   -1.759845   -4.476095
H      -0.340203   -1.165563   -2.842619
H      -1.892358   -0.427099   -2.556982
H      -2.877650   -2.687161   -2.056134
H      -1.322013   -3.427285   -2.342432
H      -1.765963   -5.024214   -0.749409
H      -2.477700   -5.043469    0.879760
H      -3.356274   -4.268263   -0.457511
H      -0.028707   -0.094430    1.391145
H      -1.409715   -1.102628    1.877102
H       0.159880   -1.850969    1.588537
