10

C       0.103553   -7.695313   -0.042103
C       0.090998   -6.485224   -0.031876
C       0.074978   -5.135138   -0.023297
C       0.059885   -3.913801   -0.016006
C       0.042577   -2.572443   -0.008675
C       0.024855   -1.351185   -0.003206
C       0.001125   -0.001224    0.000574
C      -0.020175    1.208802    0.005307
H       0.112180   -8.757621   -0.053294
H      -0.035092    2.270979    0.011187
