14

C      -0.029404    1.445041   -0.002341
N      -0.006364   -0.014274   -0.000088
N      -0.044426   -0.609396   -1.196258
C      -0.025209   -1.914495   -1.225324
C       0.033495   -2.713434   -0.049703
C       0.071795   -2.101701    1.160333
C       0.053679   -0.654801    1.256184
O       0.082905    0.009228    2.280576
H       0.867578    1.832293    0.487265
H      -0.076317    1.769351   -1.039910
H      -0.895782    1.804524    0.558371
H      -0.057402   -2.357856   -2.213810
H       0.046678   -3.795169   -0.137008
H       0.116944   -2.644186    2.096904
