21

C      -0.353557    1.421749    0.280324
C       0.030293   -0.024366    0.074571
C       1.412773   -0.403245   -0.369377
C       0.964551   -0.740084    1.048172
C       1.534795   -0.056769    2.172962
C       2.017066    0.503365    3.126243
C       2.574901    1.185306    4.286951
C       1.498447    1.807152    5.183524
O       2.169066    2.434484    6.263920
H       0.474542    1.989798    0.712638
H      -0.630304    1.890628   -0.670259
H      -1.207093    1.511536    0.961008
H      -0.770939   -0.654142   -0.303553
H       1.540294   -1.226432   -1.063640
H       2.144820    0.390613   -0.469220
H       0.733289   -1.786743    1.226603
H       3.167407    0.488568    4.892929
H       3.263219    1.980078    3.973358
H       0.906897    2.526675    4.597777
H       0.813234    1.019406    5.530496
H       1.508801    2.825525    6.842985
