17

C       0.241065    1.408385   -0.051761
N      -0.014956   -0.014108   -0.021086
C      -0.094917   -0.858807   -1.139364
C      -0.539508   -2.073222   -0.785184
C       0.026101   -3.476600   -0.873020
N       0.436237   -3.291380    0.566288
C      -0.535596   -2.153569    0.718574
C      -0.119544   -0.741468    1.172749
O      -0.030139   -0.271261    2.282501
H       1.166836    1.634951   -0.593173
H      -0.584817    1.950663   -0.525219
H       0.341850    1.740141    0.983181
H       0.304141   -0.512532   -2.084751
H      -0.726187   -4.264351   -1.013659
H       0.859622   -3.646316   -1.560587
H       0.190622   -4.081353    1.157004
H      -1.462065   -2.429797    1.236143
