17

C      -0.209453    1.345524   -0.204322
O      -0.247712   -0.069949   -0.346793
C       0.806777   -0.605114   -1.058745
C       0.730083   -2.123209   -0.973387
C       1.268666   -2.705845   -2.265147
O       0.478313   -2.221930   -3.359900
C       0.288079   -0.889137   -3.456201
O      -0.227739   -0.394937   -4.410685
O       0.773806   -0.139888   -2.432965
H       0.722502    1.666747    0.282342
H      -0.298469    1.844012   -1.174377
H      -1.056450    1.617232    0.427464
H       1.767464   -0.214040   -0.693669
H       1.289433   -2.480022   -0.104765
H      -0.317627   -2.411780   -0.848759
H       2.320180   -2.435499   -2.425821
H       1.180547   -3.792628   -2.299422
