17

C      -0.485983   -1.079769   -0.761660
C      -0.274452    0.021103   -0.329028
C      -0.006576    1.349725    0.189171
C      -0.245068    1.534641    1.706001
C       0.609899    2.776200    2.073862
N       1.554815    3.009025    0.953630
C       1.466353    1.863042    0.049390
C       2.443168    0.825905    0.432778
N       3.208908    0.018595    0.742983
H      -0.664349   -2.056303   -1.139177
H      -0.619134    2.079366   -0.356360
H      -1.303893    1.662304    1.938493
H       0.107361    0.646464    2.236379
H      -0.005451    3.667843    2.225320
H       1.162972    2.602009    3.001901
H       1.301094    3.846215    0.445204
H       1.691728    2.165534   -0.976799
