19

C      -0.216232    1.582662   -0.053617
C       0.039822    0.087048    0.017018
C       1.146993   -0.540891   -0.885429
O       2.268432    0.326968   -0.982431
C       2.958451    0.202512    0.235886
C       2.183118    0.029191    1.526758
C       2.869447   -1.163635    0.820428
C       1.487275   -1.569286    0.277956
C       0.778560   -0.550045    1.220458
H       0.714368    2.143789    0.062828
H      -0.654175    1.865252   -1.017311
H      -0.910066    1.898821    0.733283
H      -0.889838   -0.473887   -0.142976
H       0.884719   -0.882784   -1.888501
H       3.878448    0.773534    0.254702
H       2.471169    0.549239    2.433587
H       3.698137   -1.797833    1.105805
H       1.184667   -2.607762    0.177400
H       0.225643   -0.873073    2.103979
