21

C      -0.789817    1.513758    0.152695
C      -0.051975    0.178753    0.048064
C      -1.048152   -0.963843   -0.220897
C       1.028451    0.169660   -1.079290
C       2.118269   -0.759373   -0.571912
O       2.978021   -0.145834    0.407346
C       1.924640   -1.010846    0.864126
C       0.736548   -0.177636    1.361040
O       1.186043    0.940473    2.100221
H      -0.100296    2.325408    0.394023
H      -1.294063    1.751793   -0.790571
H      -1.549944    1.483147    0.940567
H      -1.577898   -0.804884   -1.166074
H      -0.541201   -1.933978   -0.284527
H      -1.795230   -1.029827    0.577325
H       0.611859   -0.177572   -2.030064
H       1.447958    1.166386   -1.253192
H       2.621490   -1.461636   -1.231314
H       2.254121   -1.909204    1.378589
H       0.096408   -0.753537    2.037001
H       2.016147    1.210618    1.683242
