19

C       0.074308    1.594225   -0.118199
C       0.009287    0.095970    0.054661
O       0.950213   -0.636161   -0.825066
C       1.068466   -1.665010    0.220361
C       2.267850   -2.322971    0.945007
C       2.049703   -1.521129    2.288616
C       2.079794   -0.086887    1.753349
C       0.731972   -0.606178    1.223649
O       0.576204   -1.364226    2.468894
H       1.081476    1.970739    0.076625
H      -0.204608    1.868748   -1.139936
H      -0.625138    2.082060    0.568607
H      -1.008224   -0.286782   -0.104310
H       0.258925   -2.388774    0.075004
H       2.137744   -3.402358    1.040741
H       3.258961   -2.120670    0.533387
H       2.549595   -1.853712    3.197207
H       1.929732    0.655439    2.538121
H       2.858285    0.207322    1.047351
