15

C      -0.015218    1.482138    0.017508
C      -0.000361   -0.022051   -0.009119
N      -0.083202   -0.618395   -1.199297
C      -0.068947   -1.962425   -1.190034
C       0.031414   -2.676144   -0.025388
F       0.039553   -4.019465   -0.001302
C       0.118107   -1.970131    1.187269
N       0.259148   -2.626082    2.373676
N       0.094517   -0.638211    1.179277
H       0.915862    1.863707    0.449156
H      -0.133446    1.875229   -0.992153
H      -0.831124    1.844089    0.650829
H      -0.141349   -2.479406   -2.143761
H       0.027779   -3.604384    2.407051
H       0.102433   -2.080839    3.205797
