17

C      -0.142782    1.523011    0.094845
C       1.389176    1.284808    0.097731
N       1.119510    0.174785    1.106300
C       0.085456   -0.007641    0.001971
C       1.170159    0.284963   -1.068517
C       0.883315    0.682524   -2.535095
N       1.773706   -0.158416   -3.352975
C       2.416805   -0.867719   -2.524900
O       2.189148   -0.733421   -1.196047
H      -0.542538    1.855360    1.051769
H      -0.587389    2.034809   -0.759273
H       2.193798    2.009569    0.230025
H       1.839884   -0.544428    1.005657
H      -0.651850   -0.811513    0.021002
H      -0.159535    0.502467   -2.818008
H       1.093208    1.740376   -2.727396
H       3.167843   -1.608177   -2.776955
