21

C      -0.269269    1.446989    0.150076
C       0.141889   -0.007453   -0.152222
C       0.950943   -0.086144   -1.374564
N       1.599747   -0.144450   -2.329435
C       0.901660   -0.620147    1.019599
N       0.076523   -1.071623    2.149547
C       0.880749   -2.061124    1.398104
C       0.082713   -3.086822    0.617914
C       2.123845   -2.620045    2.063852
H       0.610864    2.075559    0.313756
H      -0.844678    1.873214   -0.675133
H      -0.883236    1.458038    1.053908
H      -0.766512   -0.593730   -0.320942
H       1.822288   -0.083887    1.249347
H       0.522923   -0.837923    3.033087
H      -0.864271   -2.679055    0.260636
H       0.653810   -3.454048   -0.241332
H      -0.151763   -3.944951    1.257388
H       1.856795   -3.395735    2.790892
H       2.793178   -3.074930    1.325898
H       2.683998   -1.839227    2.588500
