23

C      -0.081480    0.824972   -2.072206
C       0.021891   -0.305982   -1.068473
C       1.339198   -0.647619   -0.348556
C       2.619829    0.124401   -0.595922
C       0.185178   -0.062148    0.394682
C       0.040683    1.208487    1.262062
C      -1.445053    0.782538    1.478089
C      -0.611055   -0.526157    1.631435
C       0.395754    0.305132    2.484104
H       0.469941    1.711950   -1.748649
H       0.310757    0.528811   -3.051930
H      -1.125519    1.126331   -2.213112
H      -0.571871   -1.178475   -1.337360
H       1.498672   -1.715461   -0.205794
H       2.441760    1.200566   -0.671049
H       3.331660   -0.029605    0.222777
H       3.109268   -0.196978   -1.522521
H       0.415640    2.210999    1.051710
H      -1.928840    1.158650    2.384351
H      -2.106015    0.844906    0.610538
H      -0.984673   -1.530405    1.838514
H       1.420470   -0.069676    2.537789
H       0.037963    0.648566    3.459224
