23

C       0.022938    1.393369    0.100810
O      -0.064310   -0.005651   -0.040212
C       0.617355   -0.535827   -1.172049
C       2.125440   -0.634972   -0.928673
C      -0.011294   -1.904342   -1.445589
C      -1.478229   -1.821920   -1.862609
O      -1.648554   -1.107770   -3.097934
C      -2.146641   -3.191655   -1.991580
O      -3.477172   -3.065813   -2.443292
H       1.048203    1.736072    0.303744
H      -0.344086    1.915218   -0.796282
H      -0.606071    1.670106    0.950759
H       0.427235    0.114126   -2.041030
H       2.562678    0.345189   -0.718237
H       2.331549   -1.291159   -0.076887
H       2.633344   -1.040465   -1.809827
H       0.565121   -2.419639   -2.226583
H       0.072705   -2.512467   -0.536242
H      -2.027984   -1.226394   -1.127940
H      -1.098040   -1.541444   -3.761722
H      -1.546777   -3.822229   -2.676050
H      -2.170212   -3.698365   -1.020356
H      -3.454743   -2.354726   -3.097356
