16

C       0.025898    1.449483    0.060906
C       0.027197   -0.058425   -0.030540
O       1.067256   -0.703642   -0.060091
C      -1.289705   -0.747605   -0.036804
O      -2.434505    0.043925    0.092679
C      -1.397221   -2.071639   -0.802313
C      -1.326521   -2.112654    0.687179
O      -0.239860   -2.605704    1.370531
H       1.053338    1.811006    0.106175
H      -0.483344    1.886143   -0.805710
H      -0.535508    1.773045    0.942627
H      -2.721226    0.314281   -0.787124
H      -2.353891   -2.258552   -1.278843
H      -0.515275   -2.372210   -1.358182
H      -2.253389   -2.278633    1.226315
H       0.554031   -2.250074    0.933685
