19

C      -0.086137    1.580784    0.074593
C      -0.021409    0.038728    0.020157
C       0.741450   -0.501653    1.251248
C      -1.376655   -0.518981    0.016976
C      -2.482072   -0.987915    0.060554
C       0.696302   -0.438654   -1.291963
N       0.015413    0.042488   -2.491983
C       2.129803   -0.069064   -1.273734
N       3.241718    0.247591   -1.313113
H       0.921122    2.007773    0.032135
H      -0.682462    1.981001   -0.748721
H      -0.555239    1.900115    1.008351
H       0.209731   -0.227922    2.165557
H       0.816533   -1.592582    1.219482
H       1.750464   -0.082932    1.296736
H      -3.462769   -1.394822    0.084100
H       0.642684   -1.532293   -1.299918
H       0.220923    1.024480   -2.646325
H       0.356823   -0.455724   -3.307498
