15

C       0.050305   -1.117980   -0.057705
C       0.032224    0.080945   -0.032893
C      -0.014598    1.521149    0.043486
C      -0.687705    2.206456    1.265971
C      -0.418061    3.614323    0.765814
C       0.877279    3.478095   -0.027497
O       1.284993    2.125391    0.020540
C      -0.444099    3.473583   -0.752516
O      -0.696536    2.118625   -1.066707
H       0.073056   -2.179578   -0.091859
H      -1.747060    1.953635    1.331379
H      -0.172457    1.958995    2.195334
H      -0.708907    4.513047    1.290302
H       1.676733    4.198636   -0.111863
H      -0.806194    4.190159   -1.474200
