15

N      -0.198690    1.326392    0.011182
C      -0.083634    0.071628    0.003601
O      -1.191264   -0.702413    0.008538
C      -0.970424   -2.109391   -0.001831
C      -2.345432   -2.761685    0.008016
C      -2.264357   -4.266391   -0.000811
O      -1.240203   -4.902579   -0.013988
C      -3.571208   -4.959408    0.008556
N      -4.597250   -5.492166    0.015928
H       0.720800    1.762724    0.005893
H       0.852974   -0.502817   -0.007332
H      -0.410393   -2.410479   -0.895333
H      -0.392869   -2.420861    0.876835
H      -2.919944   -2.444090    0.887930
H      -2.936978   -2.434872   -0.857111
