15

C      -0.063371    1.578944   -0.076023
C       0.048383    0.044680   -0.012699
C       0.647750   -0.489389   -1.239005
N       1.107516   -0.910888   -2.211534
C       0.864136   -0.433864    1.225579
O       2.123522    0.161422    1.271815
C       0.090006   -0.149743    2.502231
O       0.573126    0.492038    3.401161
H       0.932643    2.022801   -0.108188
H      -0.618120    1.888738   -0.963861
H      -0.585434    1.957972    0.807709
H      -0.955117   -0.395773    0.064952
H       0.953217   -1.532817    1.157934
H       2.182403    0.595414    2.138179
H      -0.932501   -0.574910    2.566777
