9

O      -0.065225    0.014617    0.003350
N      -0.008584    1.238154    0.006917
O       0.992800    1.926911    0.002727
C      -1.300025    1.907655    0.017302
N      -1.415304    3.205306    0.021997
O      -2.746526    3.428014    0.031318
N      -3.469159    2.253550    0.032349
C      -2.580423    1.301383    0.023686
H      -2.844757    0.257016    0.022177
