17

C      -0.071828    1.295808   -0.320952
O      -0.146008   -0.124594   -0.344042
C      -1.307778   -0.644275    0.221025
O      -2.455264   -0.276182   -0.565573
C      -2.974021   -1.062842   -1.542705
O      -3.777694   -0.599531   -2.302545
C      -2.549079   -2.522673   -1.591647
C      -1.700283   -2.983358   -0.448217
C      -1.129465   -2.122114    0.382029
H       0.904813    1.563939   -0.727655
H      -0.860214    1.748355   -0.931454
H      -0.151912    1.678489    0.706810
H      -1.508022   -0.158260    1.187998
H      -3.468073   -3.112549   -1.680524
H      -2.023813   -2.669744   -2.545075
H      -1.554402   -4.053361   -0.330637
H      -0.486500   -2.436376    1.196380
