24

C      -2.518279   -2.684733    0.800161
N      -1.299905   -2.049121    0.320080
C      -0.946025   -2.039385   -1.110080
C       0.503927   -2.395362   -1.406390
C      -1.883546   -2.633221   -2.151657
C      -1.327665   -0.762827   -0.399414
C      -2.637470   -0.041854   -0.678545
C      -0.270300    0.199232    0.139364
O      -0.520259    0.484379    1.507205
H      -3.365743   -2.684015    0.101724
H      -2.294303   -3.727408    1.049102
H      -2.842275   -2.185171    1.718966
H       0.589715   -3.471502   -1.597901
H       0.867401   -1.872791   -2.298716
H       1.159412   -2.159833   -0.567948
H      -2.925883   -2.339048   -2.034998
H      -1.564906   -2.319355   -3.151544
H      -1.836391   -3.728211   -2.125664
H      -3.490052   -0.705403   -0.822675
H      -2.863064    0.617364    0.165994
H      -2.544960    0.582141   -1.574253
H       0.740667   -0.201674    0.002393
H      -0.322008    1.156718   -0.390414
H      -0.544492   -0.380063    1.937245
