20

C      -0.322332    1.547480   -0.050716
C      -0.359030    0.037557   -0.282258
C       0.645934   -0.477516   -1.278201
N       1.439771    0.352776   -1.837343
O       2.312003   -0.305198   -2.732618
C       0.678408   -1.953380   -1.587856
C       1.846048   -2.791672   -1.007091
C       0.726633   -3.619134   -0.346647
O      -0.291848   -2.720250   -0.840546
H       0.655056    1.867736    0.319529
H      -0.512718    2.094552   -0.977717
H      -1.081654    1.834263    0.682652
H      -0.207379   -0.502875    0.661284
H      -1.355692   -0.280378   -0.615079
H       2.825342    0.426929   -3.088878
H       0.548093   -2.093590   -2.668657
H       2.465544   -3.303820   -1.742598
H       2.485988   -2.245520   -0.313173
H       0.596845   -4.633080   -0.744877
H       0.731733   -3.666224    0.748404
