17

N       0.010262    1.316410    0.110626
C      -0.031968   -0.048022    0.021759
N      -1.122231   -0.727076    0.011775
C      -0.774888   -2.152520   -0.003853
C       0.081924   -2.434837   -1.249125
O       1.267979   -1.623895   -1.178629
C       1.260956   -0.846904    0.001666
O       1.285443   -1.664238    1.152510
C       0.092706   -2.463888    1.226056
H       0.821513    1.784907   -0.259618
H      -0.868085    1.787311   -0.054457
H      -1.680803   -2.762990   -0.007892
H       0.384268   -3.488769   -1.294107
H      -0.468038   -2.181178   -2.162833
H       2.178598   -0.256489    0.007052
H      -0.444353   -2.219752    2.150043
H       0.386013   -3.520882    1.250129
