18

O      -0.007177    1.380175    0.074608
C       0.047801   -0.022348   -0.017975
C      -0.528973   -0.649489   -1.271523
C      -1.293783   -0.727261    0.028499
C      -1.391247   -2.020635    0.785385
N      -0.701748   -3.193774    0.228207
C      -0.178878   -2.564228    1.472166
C       1.084048   -1.799596    1.381287
C       1.177148   -0.650019    0.705164
H       0.594728    1.742330   -0.584854
H      -0.901959    0.042397   -2.019281
H      -0.087515   -1.568264   -1.637886
H      -2.142051   -0.061023    0.133232
H      -2.344765   -2.186538    1.279121
H      -1.213048   -4.039178    0.469230
H      -0.324737   -3.124358    2.392760
H       1.948962   -2.191610    1.908950
H       2.113919   -0.097702    0.691642
