14

O       0.062774   -0.005937   -0.481621
C       0.014459    1.137444   -0.099814
C       1.239058    1.977364    0.051378
C       1.251979    3.471794   -0.126040
O       0.026448    4.062266    0.333681
C       0.354758    3.691747    1.698394
C      -0.723803    3.017419    2.421697
N      -1.561975    2.491790    3.018440
C       1.578339    2.904781    1.225686
H      -0.947633    1.631768    0.130421
H       2.133225    1.485480   -0.322432
H       1.825482    4.013816   -0.867145
H       0.650821    4.585285    2.260059
H       2.509585    2.816853    1.765966
