18

C      -0.258635    1.064874    0.094723
N      -0.369983   -0.324864   -0.313654
C       0.565821   -0.880164   -1.162684
C       1.045172   -2.186625   -1.232276
C       0.741070   -3.282464   -0.261736
O      -0.627018   -3.273352    0.169374
C       1.897319   -2.176548   -2.360566
N       1.972915   -0.988759   -2.943335
N       1.145429   -0.208431   -2.189137
H       0.718424    1.318638    0.533569
H      -0.434179    1.735501   -0.755055
H      -1.036025    1.277011    0.831608
H      -0.646477   -0.979594    0.404705
H       1.014814   -4.256791   -0.692834
H       1.312953   -3.177508    0.669089
H      -1.170779   -3.315816   -0.625534
H       2.471079   -3.002361   -2.759086
H       0.992443    0.745064   -2.466148
