16

C       0.042176    1.012997   -1.509992
C       0.200855   -0.337072   -0.856099
C       1.178416   -1.332392   -1.371402
N       1.423221   -0.677191   -0.085898
C       2.468096    0.235943    0.015481
C       2.725128    1.148516    0.995083
O       3.870832    1.770126    0.709133
N       4.350946    1.201532   -0.496497
N       3.521229    0.328825   -0.873159
H       0.953362    1.321106   -2.028964
H      -0.770978    0.977269   -2.241966
H      -0.207464    1.783348   -0.771958
H      -0.695421   -0.717687   -0.370921
H       0.972607   -2.396887   -1.306785
H       1.803245   -1.033244   -2.208182
H       2.211493    1.433352    1.897041
