17

C      -0.087534    1.559471    0.063099
C       0.070540    0.057229    0.063846
C       1.362957   -0.654284   -0.226749
O       2.560267    0.089226   -0.056996
C       2.616289    0.408973    1.273643
C       3.786267    1.234846    1.680674
N       1.680525   -0.024841    2.025031
C       0.761038   -0.733908    1.170338
H       0.740642    2.059999    0.568525
H      -0.138513    1.945127   -0.960502
H      -1.008348    1.847076    0.580389
H      -0.781379   -0.481611   -0.345296
H       1.461393   -1.445573   -0.959332
H       3.746864    2.220626    1.206004
H       3.785912    1.356240    2.763421
H       4.717169    0.756779    1.360462
H       0.276415   -1.603901    1.597260
