13

O      -0.156586    0.646098    0.689842
C       0.366388    0.909980   -0.361755
C       1.559235    1.825085   -0.431943
O       2.372710    1.737015   -1.575796
C       1.641322    2.944675   -1.449821
C       0.521917    3.173373   -2.432488
O       0.004005    2.306162   -3.083996
C       2.442065    4.151315   -1.016428
O       3.482671    4.070296   -0.422903
H       0.034926    0.501341   -1.333098
H       2.074550    2.009579    0.510502
H       0.203098    4.234901   -2.515386
H       1.984918    5.130584   -1.273992
