20

C      -1.006652    1.070574   -0.047030
C      -0.043817   -0.103938   -0.116462
C       1.304267    0.097001   -0.869522
C       2.034532   -0.692614    0.265935
C       3.295129   -0.169750    0.763117
N       4.283767    0.261688    1.180977
C       0.769261   -0.494284    1.133139
C       0.741192    0.186880    2.469609
C       0.360196   -1.271350    2.344043
H      -0.507098    1.968858    0.330252
H      -1.410361    1.300864   -1.038764
H      -1.855981    0.855114    0.611062
H      -0.563627   -0.986122   -0.510226
H       1.394201   -0.314332   -1.876063
H       1.610031    1.145683   -0.880765
H       2.169025   -1.744537   -0.006579
H       1.690564    0.430560    2.935506
H      -0.048671    0.906600    2.656721
H      -0.687433   -1.538364    2.444964
H       1.049139   -2.014667    2.732976
