19

C      -0.047924    1.573282   -0.157097
C       1.526934    1.613124   -0.183239
C       1.518280    0.123615    0.200009
C       2.332353   -0.730290    1.134645
O       1.513016   -1.275108    2.168522
C       0.302518   -1.857449    1.702906
C      -0.691836   -0.793274    1.183833
C       0.048482    0.087010    0.225238
O       0.778496   -0.566649   -0.824480
H      -0.465447    2.197555    0.636538
H      -0.566455    1.781080   -1.095865
H       2.003229    1.848074   -1.137853
H       1.938338    2.256244    0.598495
H       2.833174   -1.537036    0.577527
H       3.098335   -0.136634    1.642235
H       0.507710   -2.587842    0.907498
H      -0.122411   -2.386462    2.559825
H      -1.562086   -1.279158    0.726365
H      -1.051793   -0.186012    2.022363
