20

C       0.003400    1.423323    0.094246
C       0.012873   -0.031112    0.041373
C       0.029592   -1.233668    0.015306
C       0.025889   -2.696924   -0.064231
C      -1.425899   -3.205759   -0.133821
C       0.854459   -3.149173   -1.280943
O       0.659664   -3.132690    1.174148
C       0.810149   -4.448270    1.408396
N       1.359141   -4.832063    2.480792
H       0.563099    1.856475   -0.741781
H      -1.017855    1.817271    0.053400
H       0.461341    1.781802    1.022389
H      -1.927198   -2.769797   -1.001491
H      -1.463881   -4.294526   -0.230316
H      -1.967127   -2.909709    0.767344
H       1.888140   -2.814044   -1.172025
H       0.842731   -4.237289   -1.390646
H       0.439315   -2.711071   -2.191952
H       0.428976   -5.104817    0.618287
H       1.395032   -5.849334    2.501958
