19

C       0.051558    1.463958   -0.130255
C       0.018011   -0.026478   -0.034523
O       0.570080   -0.825680   -1.131991
C       0.100978   -1.809330   -0.168077
C       0.547732   -0.995176    1.087314
C      -0.839557   -1.107274    1.714075
C      -1.369899   -1.982745    2.799317
C      -1.443354   -0.464172    2.918692
C      -1.181079   -1.011365    0.229442
H       1.082717    1.819753   -0.218149
H      -0.507474    1.804877   -1.007102
H      -0.396326    1.907191    0.764130
H       0.222369   -2.868037   -0.392727
H       1.535191   -0.985918    1.549508
H      -2.297090   -2.521117    2.628951
H      -0.665476   -2.505833    3.438628
H      -0.787835    0.017803    3.637561
H      -2.419424    0.002542    2.827904
H      -2.146399   -1.020392   -0.277371
