18

C       0.113721    1.355402    0.078650
O       0.008101   -0.043146   -0.073434
C      -1.320041   -0.535151   -0.042163
C      -1.302203   -1.878258   -0.772922
N      -2.564569   -2.575205   -0.571899
C      -3.158847   -2.686424    0.664023
O      -4.044238   -3.490518    0.896406
C      -2.664998   -1.717428    1.679761
C      -1.835342   -0.721317    1.366287
H       1.174376    1.605685    0.004274
H      -0.436507    1.890230   -0.710628
H      -0.258743    1.703596    1.053272
H      -1.987436    0.163495   -0.577474
H      -1.147976   -1.714928   -1.842164
H      -0.443401   -2.452442   -0.393944
H      -2.803871   -3.321541   -1.208207
H      -3.064101   -1.859149    2.677436
H      -1.516814   -0.000060    2.114093
