19

C      -0.367784   -1.204434   -0.162106
C      -0.203290   -0.013210   -0.094465
C      -0.046895    1.405023   -0.018521
C       0.483044    2.087119    1.260742
C       0.957019    1.252284    2.445368
C       2.474445    1.023285    2.367933
C       2.857381    0.490941    0.991829
O       2.526168    1.398272   -0.064229
C       1.324475    2.085014    0.019952
H      -0.500792   -2.254770   -0.240334
H      -0.809052    1.965151   -0.553881
H      -0.012413    3.020461    1.507357
H       0.696281    1.761030    3.377552
H       0.441206    0.285354    2.456530
H       3.008276    1.963411    2.552657
H       2.796992    0.306892    3.131047
H       3.938487    0.348431    0.907719
H       2.369997   -0.476686    0.815816
H       1.396374    3.002366   -0.556368
