15

C       0.007173    1.583814    0.067184
C       0.003345    0.087081    0.048996
C      -1.264736   -0.782215    0.217987
C      -0.309430   -1.786650    0.843150
C       0.991789   -1.793847    0.094191
N       0.704567   -0.764366    1.193823
C       0.882607   -0.710230   -0.924047
O       1.442683   -0.439010   -1.947931
H       1.030146    1.970461    0.057510
H      -0.505134    1.964397   -0.822854
H      -0.506105    1.970604    0.952353
H      -1.934517   -0.365905    0.975845
H      -1.833499   -1.048732   -0.677917
H      -0.541017   -2.598404    1.524422
H       1.740015   -2.566745    0.212221
