15

O      -0.046675   -0.133848   -0.007392
C      -0.043206    1.069673   -0.098828
O      -1.240184    1.679229   -0.395854
C      -1.292929    3.017067   -0.859919
C      -0.958662    4.051384    0.214786
N       0.471925    4.215280    0.366786
C       1.357203    3.188103    0.349497
C       1.165819    1.866642    0.114740
H      -0.641741    3.158457   -1.731259
H      -2.328514    3.159507   -1.178576
H      -1.380619    5.020231   -0.071294
H      -1.438263    3.738875    1.154046
H       0.808656    5.109277    0.678227
H       2.375833    3.512135    0.546902
H       2.046510    1.240690    0.181358
