21

C       0.064472    1.529014   -0.016152
C       0.060451    0.072715    0.002046
C       0.070446   -1.131741    0.016664
C       0.046435   -2.590657    0.030213
C      -1.382372   -3.183149    0.020679
C      -1.395630   -4.735232   -0.015481
C      -2.587431   -5.169199    0.875686
C      -2.838955   -3.942554    1.721517
C      -2.195111   -2.873273    1.258240
H       0.693032    1.916666   -0.825765
H      -0.945021    1.929197   -0.163077
H       0.447895    1.939760    0.924633
H       0.595612   -2.975727   -0.839558
H       0.576991   -2.964387    0.916468
H      -1.893932   -2.772245   -0.861930
H      -1.455622   -5.131965   -1.032317
H      -0.462115   -5.108664    0.421710
H      -3.476186   -5.414815    0.276958
H      -2.364843   -6.063075    1.469604
H      -3.504144   -3.950321    2.578413
H      -2.245579   -1.872462    1.671935
