15

O      -0.579988    0.536637    0.661730
C       0.216403    0.850197   -0.185067
C       1.298167    1.895705    0.015680
C       1.325074    2.932446   -1.109275
C       2.551404    3.858394   -1.212445
O       3.670653    3.016454   -1.450629
C       2.883508    3.429439   -2.593779
C       1.682758    2.487810   -2.572528
O       1.146788    1.783671   -3.373537
H       0.208715    0.376135   -1.190171
H       1.145160    2.366247    0.991739
H       2.267264    1.379428    0.028500
H       0.384755    3.496384   -1.157407
H       2.721988    4.822543   -0.749899
H       3.397526    3.930730   -3.404438
