21

C       0.001462    1.576583    0.035017
C       0.008907    0.039277   -0.022668
C       0.758171   -0.547699   -1.238353
C       2.174860   -0.821930   -0.729878
C       3.254982   -1.349671   -1.626502
C       3.320724    0.077761   -1.130718
C       2.017182   -1.260630    0.716640
C       0.766703   -0.516902    1.198737
O       0.430877   -0.368444    2.345470
H       1.015794    1.981611   -0.042980
H      -0.591355    1.989822   -0.786596
H      -0.427726    1.915700    0.981511
H      -1.026692   -0.312464    0.031516
H       0.289153   -1.489519   -1.550090
H       0.749403    0.119903   -2.105254
H       3.961024   -2.064926   -1.216982
H       3.014606   -1.514162   -2.672319
H       3.126963    0.872806   -1.843480
H       4.067776    0.323014   -0.382610
H       1.804846   -2.337909    0.786046
H       2.873456   -1.058391    1.364642
