18

C       0.045957    1.415571   -0.472597
C      -0.097413    0.116902    0.338422
C      -1.434789   -0.540124    0.168754
N      -2.320643   -0.539581    1.162459
N      -3.395584   -1.185738    0.658625
C      -3.227729   -1.603125   -0.623214
C      -4.283567   -2.343178   -1.377712
C      -1.956929   -1.196013   -0.974958
H       1.034568    1.861788   -0.324531
H      -0.082786    1.230652   -1.543990
H      -0.708296    2.147749   -0.168544
H       0.694901   -0.582170    0.042847
H       0.043884    0.326755    1.403028
H      -4.201719   -1.317447    1.245657
H      -5.199345   -1.750428   -1.486485
H      -3.925342   -2.587209   -2.379844
H      -4.556563   -3.282810   -0.883364
H      -1.473894   -1.355705   -1.926349
