16

C      -0.050605    1.554926    0.010140
C       0.109811    0.068466   -0.020129
N      -0.797039   -0.853744    0.747735
C       0.661830   -0.931430    0.959919
C       1.201608   -1.829502   -0.169676
C       0.653674   -0.773835   -1.132199
N       0.762603   -0.506562   -2.363926
O       1.452323   -1.528809   -3.044697
H       0.835307    2.047958   -0.401321
H      -0.913552    1.868347   -0.587000
H      -0.199316    1.911463    1.034972
H      -1.180969   -0.288156    1.506919
H       1.104895   -0.757268    1.932314
H       2.292151   -1.889938   -0.221549
H       0.768374   -2.830276   -0.228779
H       1.465477   -1.195690   -3.948242
