16

O      -0.868960    1.263122    0.035842
C       0.254985    0.902790   -0.195133
C       1.461664    1.782467   -0.108959
N       2.609112    1.290365   -0.375707
C       3.699298    2.259554   -0.250816
C       3.515686    3.039699    1.088910
C       2.438635    3.839108    0.316495
C       3.269906    3.580621   -0.963463
O       1.223754    3.059831    0.256313
H       0.520440   -0.128725   -0.499358
H       4.654644    1.794388   -0.487780
H       3.204302    2.475161    1.969418
H       4.378999    3.666974    1.317298
H       2.140992    4.841953    0.616563
H       4.096409    4.288799   -1.042653
H       2.738936    3.498362   -1.913331
