18

C      -0.294761    1.569759   -0.033294
C      -0.011365    0.060055   -0.022418
C       0.841932   -0.418481   -1.180964
C       1.858646   -1.199894   -0.817489
C       1.920642   -1.381473    0.677089
N       2.869173   -0.505219    1.400277
C       1.920165    0.425884    1.764368
O       2.001263    1.502100    2.294000
C       0.772210   -0.462702    1.208235
H       0.629551    2.150279    0.012431
H      -0.836567    1.848922   -0.942985
H      -0.906379    1.857672    0.826677
H      -0.980655   -0.457199   -0.063782
H       0.615805   -0.130111   -2.203333
H       2.576260   -1.652960   -1.492879
H       1.963406   -2.421863    1.012087
H       3.865456   -0.381193    1.280977
H       0.138528   -0.875930    1.993458
