18

C      -0.101538    1.564460    0.059453
C       0.048658    0.049167    0.010809
O      -1.216113   -0.573892   -0.161460
C       1.136086   -0.553396   -0.960027
C       1.765896   -1.265424    0.245288
O       2.217376   -2.572754    0.228978
C       2.196024   -0.271351    1.283048
C       0.735197   -0.662139    1.183159
H       0.853224    2.065631    0.240885
H      -0.492794    1.942483   -0.893683
H      -0.800919    1.848945    0.851450
H      -1.612975   -0.217503   -0.964043
H       0.663916   -1.258568   -1.646699
H       1.775187    0.142981   -1.515010
H       3.154259   -2.566377    0.003942
H       2.703929   -0.712316    2.135225
H       2.542787    0.725257    1.018237
H       0.198149   -1.108982    2.010425
