18

C       0.020273    1.565315   -0.129546
C      -0.040863    0.043525   -0.013255
O       0.510367   -0.583264   -1.161351
C       0.749319   -0.498017    1.216843
C       0.848063   -2.028699    1.168470
O       2.096872   -0.020205    1.216103
C       0.060487   -0.067919    2.444275
C      -0.482129    0.305450    3.450507
H       1.052835    1.887228   -0.292983
H      -0.580760    1.906846   -0.979646
H      -0.373565    2.048449    0.769256
H      -1.089016   -0.268036    0.127076
H       0.139270   -0.156453   -1.939164
H       1.412009   -2.318420    0.281716
H       1.360314   -2.388767    2.062654
H      -0.146931   -2.478318    1.121795
H       2.093158    0.881350    1.553512
H      -0.960373    0.625100    4.343509
