21

C      -0.010129    1.548897   -0.058873
C      -0.014806    0.013853   -0.011824
C      -1.458686   -0.521260    0.004864
C       0.770205   -0.596373   -1.206600
O       1.511264   -1.731415   -0.728231
C       1.567284   -1.698613    0.676297
C       2.251622   -0.495270    1.267386
O       2.991628    0.353226    0.438231
C       0.732537   -0.558880    1.193675
H       1.012245    1.931686   -0.031983
H      -0.497731    1.914255   -0.970296
H      -0.557106    1.964924    0.793858
H      -2.010684   -0.171326   -0.874353
H      -1.473935   -1.615989    0.000739
H      -1.997999   -0.178434    0.894369
H       0.108792   -0.946621   -2.006350
H       1.461636    0.141970   -1.625789
H       1.636225   -2.688716    1.113090
H       2.669660   -0.599928    2.267752
H       3.383232   -0.198218   -0.249433
H       0.191475   -0.629045    2.131419
