21

O       0.240419    1.091968    0.734833
C       0.056284   -0.173717    0.105624
C      -1.430240   -0.469624   -0.028019
C      -2.242198    0.467541   -0.882609
C      -1.743708   -0.831545   -1.466566
C      -0.454901   -0.822569   -2.282888
C      -0.200545    0.369361   -3.256336
C       0.735436    1.025898   -2.199922
C       0.648287   -0.264617   -1.329847
H       1.187065    1.235498    0.835374
H       0.509546   -0.959162    0.729752
H      -1.921136   -0.967193    0.800778
H      -3.302743    0.536292   -0.665578
H      -1.800146    1.406338   -1.193153
H      -2.482935   -1.593014   -1.690968
H      -0.273719   -1.812147   -2.709908
H       0.328534    0.069182   -4.164250
H      -1.084307    0.941493   -3.548994
H       1.736796    1.281213   -2.555567
H       0.320373    1.904066   -1.701304
H       1.580820   -0.834663   -1.332385
