16

C       0.125787    1.384993    0.006517
N      -0.065027   -0.046098    0.003592
C      -1.269294   -0.632972    0.010440
C      -2.538340   -0.143748    0.021501
C      -3.469795   -1.273651    0.024365
O      -4.678194   -1.304144    0.033308
N      -2.658164   -2.445776    0.014606
C      -1.320616   -2.133276    0.005645
N      -0.260863   -2.840547   -0.004656
H       1.194168    1.605082   -0.002023
H      -0.332142    1.849044   -0.876317
H      -0.316786    1.843514    0.900018
H       0.723097   -0.676609   -0.004607
H      -2.869750    0.881794    0.027608
H      -3.048737   -3.372895    0.014244
H      -0.457003   -3.841832   -0.006594
