18

C      -0.399056    1.435389    0.364726
N       0.105149    0.110971    0.011628
C      -0.949707   -0.851765   -0.334400
C      -1.451617   -1.449049    1.001375
C      -0.206479   -1.396487    1.921030
C       0.831598   -0.532051    1.115193
C       1.915293   -1.374018    0.579281
N       2.762056   -2.049498    0.176307
H       0.442115    2.095852    0.594950
H      -0.924143    1.856564   -0.496837
H      -1.091007    1.450848    1.225612
H      -1.731315   -0.364457   -0.921235
H      -0.508731   -1.639774   -0.956131
H      -2.261003   -0.841114    1.415315
H      -1.837877   -2.463546    0.879843
H      -0.426744   -0.920320    2.878511
H       0.195978   -2.388095    2.134769
H       1.296920    0.230550    1.745634
