21

C       0.426387    0.557378    1.452831
C       0.162954   -0.211522    0.190110
N       0.881801   -0.076014   -0.844111
O      -0.921266   -1.025735    0.361822
C      -1.342841   -1.837365   -0.727424
C      -2.564486   -2.638422   -0.314665
C      -3.140642   -3.467931   -1.441749
C      -2.687589   -3.092914    1.091978
N      -3.551663   -2.008609    0.573243
H       1.293462    1.200910    1.312969
H      -0.445365    1.164511    1.716386
H       0.606557   -0.130654    2.284675
H       0.581539   -0.662901   -1.620608
H      -1.589721   -1.200249   -1.589679
H      -0.531542   -2.514368   -1.030628
H      -2.418058   -4.210679   -1.798680
H      -4.035596   -3.991731   -1.099470
H      -3.426309   -2.835967   -2.290564
H      -3.202731   -4.024056    1.311901
H      -1.897461   -2.826245    1.786366
H      -3.177917   -1.121271    0.903652
