16

O       0.034984    1.489467   -0.203469
C      -0.014678    0.086739    0.012612
C       0.527638   -0.306792    1.417367
O      -0.227627   -1.448379    1.823852
C      -1.415396   -1.505873    1.137977
N      -2.300790   -2.384665    1.313753
C      -1.481605   -0.362677    0.153468
C       0.688632   -0.637003   -1.047599
C       1.298137   -1.202811   -1.915389
H       0.890813    1.703198   -0.589826
H       1.585941   -0.573562    1.421594
H       0.351392    0.532879    2.100247
H      -2.020120   -3.033847    2.051011
H      -2.045802    0.471439    0.584631
H      -1.955086   -0.656908   -0.781232
H       1.823613   -1.711778   -2.686039
