18

C      -0.131209    1.538004    0.037842
C      -0.030366    0.050517   -0.035039
C      -0.115783   -0.751106   -1.107847
C       0.117820   -2.169643   -0.718520
O       0.381189   -3.113758   -1.429444
N       0.071768   -2.198938    0.687962
C       1.298212   -2.598920    1.438025
C       1.537302   -1.113673    1.820284
C       0.133900   -0.811551    1.187022
H       0.766811    1.969581    0.497420
H      -0.259119    1.984208   -0.950889
H      -0.978440    1.841634    0.665051
H      -0.253006   -0.453505   -2.139024
H       1.068615   -3.256328    2.280415
H       2.044393   -3.078047    0.799928
H       1.635538   -0.889908    2.883401
H       2.360256   -0.649697    1.273232
H      -0.630876   -0.588426    1.941960
