21

C      -0.341015    1.567059    0.084824
O      -0.137656    0.209919    0.409696
C      -1.193075   -0.649856    0.014935
C      -1.196225   -0.852738   -1.527155
O      -1.642435   -2.139704   -1.943061
C      -1.364517   -3.176796   -1.011218
C      -2.164173   -2.932103    0.294727
C      -0.984088   -2.003565    0.697636
C      -0.074663   -2.903256   -0.188983
H       0.480111    2.132452    0.532509
H      -0.335933    1.748797   -1.000047
H      -1.293174    1.941913    0.492561
H      -2.152391   -0.221254    0.350872
H      -1.838726   -0.129124   -2.036535
H      -0.163736   -0.680785   -1.865089
H      -1.481654   -4.116505   -1.553956
H      -3.160115   -2.494334    0.183553
H      -2.215048   -3.823656    0.924883
H      -0.739208   -1.864812    1.752042
H       0.242165   -3.802490    0.344344
H       0.786152   -2.457633   -0.691265
