20

C      -0.329432    1.456850    0.060760
C       0.064394   -0.036073   -0.017323
N       0.720192   -0.272633   -1.301937
C       1.918242    0.038706   -1.522478
O       2.844744    0.571551   -0.668949
C       3.190851   -0.185279    0.491561
C       2.085845   -0.529138    1.442160
C       0.767018   -0.486504    1.255118
C      -0.175897   -0.897299    2.360520
H       0.567883    2.078595    0.111171
H      -0.903787    1.736647   -0.826317
H      -0.941430    1.653956    0.945629
H      -0.870824   -0.608293   -0.063690
H       2.316364   -0.048057   -2.535426
H       3.703951   -1.106819    0.170797
H       3.941316    0.424596    1.006860
H       2.459404   -0.879937    2.403845
H       0.360716   -1.139205    3.281099
H      -0.897149   -0.103250    2.589797
H      -0.764111   -1.775532    2.065581
