18

C       0.002346    1.593580   -0.067934
C       0.044497    0.087122    0.026769
C       0.530309   -0.716551   -1.238212
O       0.459622   -2.123447   -0.837287
C      -0.011005   -1.918200    0.469745
C      -0.457129   -2.489795    1.817757
N      -0.607204   -0.961444    2.026360
C       0.665337   -0.734689    1.173686
C      -1.080855   -0.822216    0.558675
H       0.995312    2.005886   -0.280598
H      -0.671144    1.922358   -0.867633
H      -0.350223    2.030361    0.870782
H      -0.120090   -0.558434   -2.105723
H       1.562933   -0.474075   -1.512963
H      -1.406308   -3.030449    1.865056
H       0.297321   -2.945058    2.465077
H       1.655006   -0.695181    1.628937
H      -2.136334   -0.885219    0.293620
