15

N      -0.273786   -0.929672   -0.771669
C      -0.149585    0.136809   -0.343313
C       0.034158    1.502236    0.150091
N       0.157592    1.642663    1.620219
C       1.304562    2.583427    1.482574
C       1.439272    2.136416    0.027006
C       2.596372    1.604147   -0.714064
N       1.988139    2.908688   -1.063521
H      -0.733982    2.143062   -0.308289
H      -0.666827    2.020221    2.072551
H       1.043575    3.646606    1.564001
H       2.138680    2.362965    2.155062
H       3.590732    1.667101   -0.281296
H       2.430406    0.752649   -1.368747
H       1.414880    2.825651   -1.900177
