15

C       0.164425    1.626178   -0.030855
C       0.046376    0.100643   -0.011782
C       0.711108   -0.608580   -1.179943
O       2.131674   -0.513598   -1.124703
C       1.523112   -1.767311   -0.743171
C       1.447447   -1.845951    0.752877
O       1.809057   -2.731897    1.476535
C       0.719521   -0.539659    1.210288
O       0.675838   -0.149262    2.343119
H       1.208278    1.923620   -0.162170
H      -0.424959    2.057268   -0.844932
H      -0.193389    2.035790    0.916727
H      -1.014157   -0.190197    0.028527
H       0.277170   -0.580272   -2.176156
H       1.748881   -2.630451   -1.359784
