14

C      -0.057403    1.629821   -0.029681
C       0.061829    0.111129   -0.047998
C       0.759628   -0.631117   -1.193204
C       2.211369   -0.409980   -1.194628
N       1.660684   -1.409998   -0.225742
C       1.097116   -0.601229    0.848391
O       1.353852   -0.611795    2.010464
H       0.892693    2.116109   -0.268399
H      -0.804112    1.972880   -0.752422
H      -0.365533    1.968479    0.963857
H      -0.913801   -0.346755    0.155125
H       0.252371   -1.163897   -1.988425
H       2.804630   -0.879161   -1.972392
H       2.632580    0.512427   -0.803016
