20

O      -0.120452    1.313580    0.139394
N       0.013020   -0.088659    0.199784
C      -1.110596   -0.667246    0.044630
C      -2.470676   -0.035519   -0.164234
C      -3.374749   -1.219035   -0.567382
C      -2.740509   -2.436425    0.136833
C      -1.242954   -2.155516    0.052311
C      -0.326643   -2.986117   -0.834600
C      -0.190782   -3.043296    0.660553
H       0.787944    1.607406    0.263494
H      -2.800480    0.419261    0.779035
H      -2.431174    0.772804   -0.898495
H      -4.422162   -1.066348   -0.295652
H      -3.334049   -1.360306   -1.653125
H      -3.058261   -2.468026    1.187340
H      -3.020677   -3.390691   -0.317692
H      -0.762144   -3.837594   -1.347914
H       0.432210   -2.448764   -1.392140
H       0.661655   -2.547306    1.111043
H      -0.528622   -3.938460    1.172932
