21

C      -0.485287    1.516172   -0.031777
C      -0.073419    0.052360    0.054735
C       1.070793   -0.493467   -0.941226
C       1.516503    0.320820   -2.143588
C       1.968172   -0.528532    0.304320
C       2.926231   -1.016996    1.421925
C       2.024305    0.181565    1.937165
O       2.321776    0.884103    0.691535
C       0.784350   -0.479312    1.272516
H       0.371507    2.181221    0.069989
H      -0.983003    1.724740   -0.986047
H      -1.198383    1.750986    0.766493
H      -0.970501   -0.568353   -0.031921
H       0.805112   -1.513691   -1.238469
H       1.856142    1.313458   -1.838945
H       2.342387   -0.174709   -2.665173
H       0.695942    0.441435   -2.859049
H       2.747574   -2.016185    1.827820
H       3.985838   -0.774541    1.322961
H       2.137747    0.740753    2.870626
H       0.425065   -1.412275    1.710922
