17

C      -0.056767    1.516895   -0.022720
C       0.060353    0.018827   -0.003647
C       0.720385   -0.815766   -1.028451
C       1.534335   -1.831432   -0.347646
C       1.341040   -1.781564    0.981387
C       0.223877   -0.802665    1.305195
N      -0.941331   -1.731589    1.317978
C      -1.380246   -1.728876    0.113993
N      -0.876382   -0.787284   -0.802162
H       0.868293    1.984463    0.330799
H      -0.259266    1.871455   -1.037018
H      -0.875699    1.850445    0.623606
H       0.945049   -0.460660   -2.026310
H       2.152919   -2.548035   -0.873792
H       1.746283   -2.467155    1.714829
H       0.311755   -0.237092    2.233533
H      -2.141590   -2.422195   -0.232149
