12

O       0.049897   -0.071941    0.002894
C      -0.033636    1.137938    0.007367
C       1.198932    1.962225    0.001039
N       2.161213    2.602951   -0.003908
C      -1.272161    1.896406    0.018796
C      -2.554125    1.355406    0.026364
N      -3.393618    2.399477    0.035914
N      -2.769114    3.604547    0.035206
C      -1.482152    3.302931    0.024771
H      -2.886278    0.330020    0.025490
H      -4.400876    2.378720    0.043241
H      -0.738680    4.086247    0.021843
