19

C       0.727214    0.087293    0.932354
O      -0.132745    0.054403   -0.197611
C      -1.292302   -0.702345   -0.032890
C      -1.614866   -1.676953   -1.155553
C      -1.197897   -2.201656    0.181823
C      -2.471960    0.014525    0.537482
O      -3.501115   -0.564339    0.834733
C      -2.406921    1.529821    0.677816
O      -3.619965    2.036290    1.148861
H       1.559495    0.743678    0.670346
H       0.225701    0.486947    1.823894
H       1.118482   -0.909400    1.173157
H      -2.655517   -1.764191   -1.443779
H      -0.889582   -1.696929   -1.960294
H      -0.199729   -2.612991    0.274771
H      -1.955768   -2.641308    0.819178
H      -1.577928    1.794678    1.352204
H      -2.140296    1.950358   -0.304982
H      -4.191177    1.258506    1.258429
