19

N      -0.138002    1.269308   -0.119205
C      -0.056497    0.011596   -0.069337
C      -1.210016   -0.961825   -0.152959
C      -0.528363   -2.280036   -0.539454
C       0.856840   -2.096367    0.105163
O       1.115669   -0.686409    0.065669
N      -1.209095   -3.452471   -0.018642
C      -2.263413   -4.016019   -0.858833
C      -0.957605   -4.713435   -0.717049
H       0.788011    1.690522   -0.023853
H      -1.669591   -1.072151    0.836162
H      -1.974776   -0.614969   -0.847551
H      -0.411046   -2.325434   -1.636991
H       0.833855   -2.445177    1.144701
H       1.665857   -2.602995   -0.425857
H      -3.142014   -4.374829   -0.331508
H      -2.468160   -3.533101   -1.812825
H      -0.290103   -4.697653   -1.577133
H      -0.864629   -5.590592   -0.084026
