19

C       0.465549    1.388374   -0.015412
O       0.603637   -0.009275   -0.088990
C      -0.116943   -0.569073   -1.169069
C       0.102564   -2.056641   -1.151747
C      -0.170753   -2.935371   -2.355333
O      -0.289065   -2.280136   -3.601675
C       1.042168   -2.121120   -4.061965
O       1.854993   -1.947922   -2.915270
C       1.241427   -2.719117   -1.904978
H       0.843296    1.886149   -0.922866
H      -0.585018    1.690611    0.126330
H       1.049003    1.730695    0.842837
H      -1.192871   -0.345886   -1.067280
H       0.217278   -0.140401   -2.123327
H      -0.129194   -2.523615   -0.197194
H      -0.718145   -3.868281   -2.274194
H       1.360756   -3.012716   -4.628922
H       1.102730   -1.224663   -4.684864
H       1.875901   -3.470597   -1.448503
