24

C       0.199906    1.556494   -0.104494
C       0.331401    0.031238   -0.080181
C       0.603815   -0.524954    1.321126
C       0.741390   -2.049818    1.355037
C       0.941393   -2.614614    2.767415
O      -0.128896   -2.252546    3.642324
C       1.152490   -4.114513    2.749246
C       2.519222   -4.682924    2.865510
N       1.561133   -4.811687    3.974729
H       1.117149    2.038373    0.252047
H       0.001769    1.925680   -1.115661
H      -0.619740    1.892652    0.540216
H      -0.586911   -0.421958   -0.477328
H       1.137528   -0.278148   -0.759086
H       1.521967   -0.070738    1.719770
H      -0.200747   -0.228372    2.003836
H      -0.156502   -2.512927    0.918289
H       1.583923   -2.369095    0.727329
H       1.824533   -2.143766    3.221093
H      -0.916611   -2.728365    3.355085
H       0.414634   -4.666112    2.164604
H       2.770472   -5.613335    2.364292
H       3.348948   -3.986933    2.965957
H       1.761612   -4.124856    4.698767
