18

O       0.298891    1.119980    0.274299
C       0.007007   -0.112178   -0.312846
C      -1.459596   -0.476748   -0.057039
O      -2.173557    0.292428    0.571012
N      -1.882460   -1.659994   -0.563122
C      -3.233048   -2.168661   -0.388117
C      -3.221298   -3.506072    0.310560
C      -4.111351   -4.597921   -0.096397
O      -2.733993   -4.600017   -0.477627
H      -0.541576    1.400629    0.675444
H       0.180927   -0.087581   -1.401024
H       0.648671   -0.909787    0.095382
H      -1.223415   -2.251428   -1.046092
H      -3.775634   -1.424424    0.199691
H      -3.727497   -2.270943   -1.361634
H      -2.844008   -3.494894    1.333664
H      -4.397608   -5.357006    0.629213
H      -4.820506   -4.439924   -0.907858
