12

C       0.306057    1.528842    0.132172
O       1.131720    0.435613   -0.252533
C      -0.240252    0.162191    0.043326
C      -0.516640   -0.641755    1.243702
C      -1.383766   -1.666577    1.475384
N      -1.231684   -2.027200    2.792204
N      -0.361322   -1.318540    3.352497
O       0.139102   -0.386536    2.373460
H       0.514970    1.949317    1.113223
H       0.065960    2.241175   -0.655396
H      -0.849792   -0.106768   -0.817276
H      -2.081133   -2.159650    0.820475
