18

O       0.068941    1.425014    0.412497
C       0.027984    0.073257    0.069247
C       0.435969   -1.008818    1.124167
N      -0.856941   -1.746939    0.929981
C      -1.990415   -1.470930    1.884404
C      -1.812527   -0.419345    2.982313
O      -2.049352    0.662518    2.038996
C      -2.455813   -0.282165    1.003312
C      -1.347598   -0.654657    0.002181
H      -0.547954    1.536801    1.151300
H       0.588499   -0.029634   -0.863938
H       1.295644   -1.629836    0.855763
H       0.608439   -0.601929    2.124640
H      -2.574052   -2.361219    2.119969
H      -2.610500   -0.454081    3.734575
H      -0.847616   -0.334271    3.490497
H      -3.470122   -0.082310    0.650659
H      -1.711492   -0.968483   -0.981782
