19

C       0.328519    1.392689   -0.017196
O       1.166295    0.266713   -0.253181
C      -0.226511    0.026565    0.034284
C      -0.544974   -0.668054    1.294256
C      -1.479937   -1.616615    1.442367
C      -1.487355   -2.190519    2.815535
C      -0.207816   -2.909502    3.207894
C      -0.377887   -1.454528    3.553395
C       0.193192   -0.407183    2.597715
H       0.520231    1.935083    0.907118
H       0.121122    2.017436   -0.885661
H      -0.798564   -0.306348   -0.832222
H      -2.130574   -1.971444    0.649982
H      -2.419985   -2.477891    3.288205
H      -0.263938   -3.616931    4.029033
H       0.477360   -3.188730    2.413645
H      -0.487605   -1.194872    4.599494
H       1.278231   -0.490706    2.467324
H       0.000187    0.609757    2.965699
