19

C      -0.067763    1.573227    0.036691
C      -0.002267    0.038502   -0.020568
C       0.680653   -0.449523   -1.279493
C       1.811914   -1.151803   -1.235072
C       2.415416   -1.475899    0.111986
C       1.649971   -2.621418    0.802019
O       0.491261   -1.950564    1.299341
C       0.739159   -0.547671    1.197438
O       2.132627   -0.409506    1.029981
H       0.940315    1.994714    0.090961
H      -0.558048    1.978755   -0.853759
H      -0.630913    1.911702    0.912992
H      -1.024041   -0.362550    0.008231
H       0.222385   -0.185054   -2.229463
H       2.300269   -1.522596   -2.130820
H       3.496407   -1.619066    0.078459
H       1.343476   -3.417829    0.118104
H       2.231826   -3.048564    1.629410
H       0.451991   -0.058612    2.134111
