16

C      -0.053010    1.432890    0.020572
C       1.413227    1.865243   -0.029556
N       2.190333    1.466782    1.156142
C       2.277906    0.644877   -0.083828
C       1.343637   -0.499607   -0.058516
C       1.236198   -1.875615   -0.045120
C      -0.157458   -2.103456    0.049257
N      -0.862718   -0.967797    0.093736
N       0.076614   -0.018511    0.015875
H      -0.559032    1.776517    0.926972
H      -0.612717    1.777946   -0.855255
H       1.671404    2.774631   -0.559655
H       3.017966    2.056888    1.221376
H       3.206550    0.611213   -0.640158
H       2.027771   -2.605528   -0.082816
H      -0.674899   -3.051208    0.085692
