21

C      -0.560589    1.327807   -0.067804
C       0.101580   -0.033397   -0.045051
O       1.301273   -0.082391   -0.902859
C       2.082384   -0.550423    0.212406
C       2.889140    0.502697    1.014022
C       1.702758    0.537288    2.056568
C       0.926485   -0.494208    1.186178
C       1.059212   -2.023694    1.445570
C       2.240362   -2.082418    0.398771
H       0.124555    2.115564    0.257382
H      -0.888334    1.565786   -1.084683
H      -1.439196    1.334830    0.586804
H      -0.617126   -0.798805   -0.371276
H       3.851851    0.168304    1.410104
H       3.038660    1.432159    0.460754
H       1.968062    0.154829    3.045511
H       1.224265    1.510292    2.191910
H       1.353923   -2.277418    2.467129
H       0.178025   -2.618412    1.188787
H       2.021913   -2.647719   -0.509494
H       3.202346   -2.415481    0.797514
