21

O      -0.015840    1.447017    0.226609
C       0.059536    0.046682    0.008209
C      -1.353781   -0.515842    0.073021
C      -1.402891   -2.033307   -0.159106
C      -2.797047   -2.589334   -0.093865
C      -3.500969   -2.994124    1.191397
C      -3.341918   -3.988522    0.082104
O      -4.361842   -3.809489   -0.903713
C      -3.856271   -2.477810   -1.192726
H       0.874741    1.807044    0.184535
H       0.505774   -0.180763   -0.974355
H       0.689031   -0.443213    0.769944
H      -1.785455   -0.273453    1.050957
H      -1.966692    0.000978   -0.675522
H      -0.960119   -2.269995   -1.136885
H      -0.778937   -2.539060    0.589513
H      -2.836802   -3.128462    2.040640
H      -4.493190   -2.622877    1.434819
H      -2.873526   -4.963545    0.160103
H      -4.628619   -1.706084   -1.090341
H      -3.428970   -2.441627   -2.202673
