17

F       0.133600    0.067900   -0.123808
C       0.044273    1.404657   -0.000118
F       1.288605    1.889091    0.025257
F      -0.554061    1.871164   -1.108917
C      -0.754210    1.794571    1.233861
N      -0.160536    1.270925    2.434431
C      -0.358266   -0.150744    2.797197
C      -0.448038    0.279508    4.280454
C      -0.704032    1.706221    3.737037
H      -0.760065    2.888415    1.278590
H      -1.794898    1.457800    1.065267
H      -1.310580   -0.558862    2.420965
H       0.452246   -0.818966    2.495702
H      -1.235848   -0.170947    4.883884
H       0.506375    0.193877    4.802254
H      -0.172545    2.545223    4.197948
H      -1.779774    1.944946    3.699270
