20

C      -0.034034    1.553772    0.048456
C      -0.265106    0.054088   -0.177529
C       0.646573   -0.517973   -1.244002
O       0.444276    0.011799   -2.533239
C       2.038125   -0.970449   -0.919014
C       0.986382   -1.998381   -1.311170
C       0.502835   -2.954494   -0.266410
N      -0.052368   -4.101655   -0.761551
O       0.605552   -2.753490    0.932766
H       0.995989    1.754975    0.362714
H      -0.232497    2.134871   -0.859612
H      -0.700378    1.936578    0.826661
H      -0.108297   -0.497480    0.751920
H      -1.304485   -0.113938   -0.485877
H       0.768453    0.918989   -2.529693
H       2.822802   -0.769903   -1.639213
H       2.332832   -0.996121    0.124573
H       1.040215   -2.377178   -2.326146
H      -0.271595   -4.205154   -1.736808
H      -0.480324   -4.733430   -0.104298
