17

O       0.013492    0.055227   -0.037170
C       0.007526    1.252090   -0.005775
C      -1.195586    2.217553    0.020673
C      -0.409391    3.539219    0.055000
C       0.686348    3.293556   -1.018484
C       1.205134    2.223819    0.019097
C       0.687850    3.237251    1.112458
C       2.533419    1.684060    0.003896
C       3.648963    1.236041   -0.008691
H      -1.819172    2.089898   -0.869497
H      -1.817810    2.043031    0.903815
H      -0.981021    4.465009    0.079868
H       0.385415    2.935486   -2.006506
H       1.393749    4.119441   -1.109735
H       1.395403    4.057198    1.246197
H       0.388301    2.827493    2.080617
H       4.630045    0.830558   -0.019940
