19

C       0.150319    1.118987   -0.386122
N       0.043090    0.041012    0.575985
C      -1.137153   -0.888649    0.682656
C      -0.145122   -2.017580    1.111224
C       0.292155   -3.262538    0.295794
O      -0.301694   -3.345732   -0.987317
C       1.831592   -2.963055    0.192760
N       1.933343   -1.480724    0.009363
C       0.884018   -1.058763    0.597058
H       1.139151    1.575677   -0.301160
H       0.021345    0.769772   -1.422689
H      -0.603706    1.881616   -0.173593
H      -1.886439   -0.572185    1.411437
H      -1.603166   -1.083141   -0.290119
H      -0.136882   -2.203077    2.187043
H       0.066724   -4.208187    0.795292
H       0.101908   -2.663636   -1.537198
H       2.370103   -3.297989    1.089746
H       2.268831   -3.476498   -0.668821
