21

C      -0.013448    1.536513    0.027015
C       0.056914    0.010486    0.014807
C       0.760135   -0.526025    1.271664
O      -1.292157   -0.452028   -0.028954
C       0.773716   -0.468401   -1.255808
O       0.661102   -1.883022   -1.306394
C       1.177184   -2.459398   -2.477933
C       0.980059   -3.963955   -2.399146
O       1.333048   -4.726522   -3.257655
H       0.987235    1.978904    0.038925
H      -0.552060    1.901780   -0.851920
H      -0.550216    1.874219    0.917614
H       0.186591   -0.248052    2.159733
H       0.836687   -1.615992    1.232821
H       1.772090   -0.118124    1.368891
H      -1.247198   -1.391236   -0.244722
H       0.292225   -0.024097   -2.140257
H       1.833580   -0.169419   -1.251152
H       0.670522   -2.081468   -3.381794
H       2.252768   -2.249871   -2.600625
H       0.474731   -4.299841   -1.466498
