20

C      -0.082529    0.846821   -1.181515
C      -0.297154   -0.243457   -0.135897
O       0.054539   -1.547933   -0.584081
C       1.447462   -1.833268   -0.655805
C       1.911341   -2.062992   -2.105763
O       3.304096   -2.200990   -2.118670
C       1.288698   -3.321654   -2.740698
N      -0.061245   -3.390344   -2.732232
O       2.021225   -4.164497   -3.237823
H       0.975067    0.957745   -1.440322
H      -0.639583    0.620984   -2.095826
H      -0.433174    1.809204   -0.794105
H       0.258798   -0.009039    0.783435
H      -1.357117   -0.307724    0.130502
H       2.042371   -1.014507   -0.235386
H       1.650745   -2.733111   -0.062281
H       1.594339   -1.196009   -2.708733
H       3.456515   -3.034670   -2.600231
H      -0.572263   -2.765925   -2.123080
H      -0.492415   -4.242761   -3.052764
