16

C      -0.134615    1.636769   -0.328852
C       0.052211    0.211897    0.186413
N      -1.236588   -0.486493    0.165804
C      -1.549510   -1.323942   -0.961400
C      -1.321664   -1.936300    0.397801
C      -0.122960   -2.793695    0.583091
O      -0.117620   -3.785337    1.271190
H       0.810528    2.186388   -0.285892
H      -0.477978    1.634372   -1.368406
H      -0.877722    2.167811    0.271888
H       0.824895   -0.294012   -0.413195
H       0.404137    0.227902    1.223950
H      -2.563531   -1.277902   -1.349219
H      -0.775561   -1.489233   -1.712627
H      -2.177215   -2.252223    0.989234
H       0.787181   -2.474092    0.030061
