15

O       0.069826   -0.118494    0.001019
C      -0.016544    1.093183    0.008994
C      -1.210129    1.933306    0.030106
C      -1.141752    3.297166    0.036502
N       0.020692    4.047727    0.024313
C       1.068824    3.297077    0.005623
C       2.580994    3.419061   -0.014960
C       2.573449    1.845876   -0.023390
N       1.104181    1.939851   -0.002100
H      -2.165870    1.424065    0.040634
H      -2.057920    3.881076    0.052408
H       2.994306    3.887871   -0.909532
H       3.019381    3.878220    0.872653
H       2.962078    1.370937   -0.926086
H       2.987378    1.361233    0.862749
