15

C       0.411902    1.538165    0.222474
N       1.241748    0.407831   -0.212158
C      -0.191402    0.182787    0.094049
C      -0.526254   -0.656805    1.251319
C      -1.437657   -1.654092    1.428638
C      -1.308204   -2.085222    2.789366
C      -0.329991   -1.316791    3.332257
O       0.153660   -0.440151    2.411284
H       0.647868    1.913584    1.213313
H       0.119695    2.295888   -0.500262
H       1.371161    0.435447   -1.220544
H      -0.863429    0.023542   -0.745329
H      -2.115619   -2.037499    0.681981
H      -1.866866   -2.861771    3.287704
H       0.124257   -1.265297    4.307791
