19

O      -1.904850    1.367367   -1.367404
C      -1.862574   -0.050457   -1.397864
C      -1.639618   -0.524917    0.036250
C      -1.590395   -2.030533    0.160939
C      -1.981273   -2.730821    1.436628
C      -2.849270   -2.842730    0.201175
O      -0.551194   -2.628805   -0.613989
C       0.686556   -2.645520   -0.073073
O       1.635877   -3.069783   -0.660356
H      -1.965246    1.685816   -2.272574
H      -2.803459   -0.473889   -1.784051
H      -1.050015   -0.418771   -2.039975
H      -0.709694   -0.081281    0.412813
H      -2.448713   -0.139489    0.665902
H      -1.414945   -3.609528    1.723238
H      -2.325384   -2.124311    2.267047
H      -3.795155   -2.313536    0.179371
H      -2.839662   -3.786741   -0.330485
H       0.711882   -2.240665    0.955188
