17

O       0.329068   -0.283186   -0.002510
C       0.149259    0.906541    0.005163
C       1.285004    1.933871   -0.000035
C       1.233981    2.804454   -1.238865
C       0.290113    3.723512   -1.514356
C      -0.763021    4.203958   -0.646081
C      -0.750368    4.196737    0.708332
C       0.318756    3.707168    1.551610
C       1.257220    2.791192    1.248758
H      -0.870550    1.340843    0.016765
H       2.205122    1.345042   -0.011756
H       2.015362    2.629021   -1.972919
H       0.332659    4.193637   -2.495077
H      -1.594504    4.701799   -1.138578
H      -1.572456    4.689216    1.221555
H       0.379661    4.166817    2.536321
H       2.052154    2.608007    1.966178
