18

C       0.058775    1.568798   -0.020125
C       0.033060    0.073221    0.053016
C      -0.067083   -0.811416   -0.983289
N      -0.098403   -0.660940   -2.365068
O      -0.047631   -2.092695   -0.542399
C       0.061339   -2.046962    0.837013
C       0.050160   -3.359189    1.530638
O      -1.220445   -4.011870    1.516154
C       0.117513   -0.751515    1.230745
H       1.074655    1.976124    0.058719
H      -0.360841    1.936050   -0.963805
H      -0.531278    2.015306    0.787315
H      -0.347945    0.278881   -2.642583
H      -0.706470   -1.333538   -2.817054
H       0.822022   -4.018906    1.103404
H       0.297977   -3.199330    2.583331
H      -1.479531   -4.098040    0.592930
H       0.197507   -0.405272    2.250741
