20

O      -0.001508    1.430381   -0.018051
C       0.033954    0.011450    0.011176
C      -1.404104   -0.497557    0.002252
C      -2.160814   -0.087384   -1.275979
N      -3.535848   -0.581071   -1.334954
C      -3.619962   -2.038995   -1.199219
C      -2.864381   -2.581587    0.014296
O      -3.348633   -3.376920    0.785793
C      -1.453176   -2.030003    0.175415
H       0.902262    1.757462   -0.040507
H       0.570763   -0.393198   -0.863969
H       0.551150   -0.357258    0.911524
H      -1.916333   -0.033883    0.857344
H      -2.170205    1.001205   -1.365764
H      -1.625187   -0.477728   -2.154541
H      -4.083267   -0.145937   -0.598121
H      -4.664241   -2.353725   -1.135176
H      -3.188757   -2.492955   -2.104489
H      -0.834098   -2.495024   -0.607979
H      -1.059436   -2.353062    1.143201
