19

C       0.088676    1.484364   -0.089845
C       0.031537   -0.032410    0.090429
O       0.643942   -0.431287    1.318923
C      -1.387125   -0.585650    0.005901
C      -2.172531   -0.527647   -1.360546
C      -2.304052   -2.053177   -1.299123
N      -0.915570   -2.574632   -1.289159
C      -1.540123   -2.114430   -0.024249
H       1.120102    1.837098   -0.003320
H      -0.300500    1.787032   -1.067193
H      -0.510896    1.991792    0.677727
H       0.630360   -0.519639   -0.685524
H       0.185489    0.026178    2.032892
H      -1.999323   -0.152451    0.806873
H      -3.122562    0.003651   -1.275574
H      -1.618667   -0.152197   -2.225280
H      -3.122917   -2.665421   -1.656182
H      -0.973911   -3.592525   -1.292693
H      -1.631852   -2.785939    0.819921
