15

N      -0.573148   -0.949473   -0.852276
C      -0.331535    0.093593   -0.418500
C      -0.042509    1.415504    0.118012
C      -0.276305    1.570821    1.640453
C       0.687105    2.719698    2.020607
O       1.491715    2.995745    0.859101
C       1.432711    1.892707   -0.010298
C       2.402716    0.841567    0.371037
N       3.169250    0.042534    0.699911
H      -0.645955    2.149108   -0.426108
H      -1.319003    1.797482    1.865951
H      -0.010634    0.644811    2.154001
H       0.169000    3.648491    2.271229
H       1.330929    2.438853    2.860837
H       1.670498    2.239739   -1.019019
