19

C      -0.120377    1.496504    0.177663
C      -0.013129   -0.010867   -0.065417
C      -1.361825   -0.697414   -0.038602
O      -2.178672   -0.238744   -1.102878
C      -3.111458   -1.264181   -1.377082
C      -2.447115   -2.546220   -0.761164
O      -1.216860   -2.090539   -0.258588
C      -3.343623   -3.149685    0.311511
O      -3.139520   -3.082037    1.493265
H       0.868120    1.963472    0.157045
H      -0.739137    1.971012   -0.588639
H      -0.569686    1.710800    1.153452
H       0.445758   -0.219689   -1.037485
H       0.611359   -0.483009    0.700474
H      -1.880247   -0.534390    0.922548
H      -4.086780   -1.053036   -0.914485
H      -3.247018   -1.338417   -2.458913
H      -2.259819   -3.311026   -1.524916
H      -4.249050   -3.657925   -0.099935
