18

O      -0.097803    1.378222   -0.016501
C       0.049002   -0.014503   -0.007769
C       0.775893   -0.712493   -1.187644
C       0.384871   -2.121816   -0.737825
C      -1.146905   -2.096359   -0.684223
C      -1.073177   -2.039014    0.804990
C      -1.316939   -0.758016    0.031762
N       0.414595   -2.109218    0.824859
C       0.785599   -0.717373    1.166080
H       0.778949    1.773586   -0.053707
H       0.340007   -0.466734   -2.160163
H       1.853570   -0.515864   -1.205162
H       0.900862   -2.978456   -1.166801
H      -1.866193   -2.565520   -1.342399
H      -1.689592   -2.464361    1.587537
H      -2.256068   -0.222604    0.044703
H       1.871381   -0.569401    1.157703
H       0.385424   -0.451665    2.148270
