19

C      -0.120822    1.412152   -0.144696
N       0.568258    0.149606    0.131834
C       0.835647   -0.685751   -0.939076
C       0.671769   -2.012856   -1.191603
C       0.014005   -3.067498   -0.366964
N       1.261249   -2.294835   -2.428410
C       1.716391   -1.166938   -2.859503
C       2.403792   -0.861818   -4.140082
O       1.501606   -0.125850   -1.996781
H       0.477815    2.000123   -0.843250
H      -1.124713    1.279701   -0.576010
H      -0.207718    1.976345    0.786854
H       0.142331   -0.366658    0.889217
H      -0.669573   -3.665793   -0.978059
H       0.741790   -3.758648    0.075131
H      -0.566218   -2.628736    0.451822
H       1.834128   -0.140388   -4.736477
H       3.397165   -0.433271   -3.968530
H       2.509319   -1.785692   -4.709536
