14

C       0.032698    1.382130    0.016907
O       1.315626    1.923366   -0.018633
C       2.063600    1.687733    1.183397
C       1.886037    0.246260    1.532591
N       2.560334   -0.542153    2.365255
N       1.964982   -1.718308    2.203006
N       0.949558   -1.776660    1.333049
C       0.893814   -0.523774    0.904144
O       0.022747   -0.055755   -0.007431
H      -0.511925    1.709323    0.917198
H      -0.482736    1.697362   -0.889480
H       3.101018    1.939841    0.951124
H       1.719284    2.358547    1.984936
H       2.265292   -2.535237    2.707425
