18

N      -0.099483    1.327307   -0.154295
C      -0.108202    0.093101    0.431791
O       0.717861   -0.235458    1.262275
C      -1.233115   -0.818409   -0.033301
C      -1.608745   -0.897406   -1.549777
C      -1.728312   -2.444519   -1.419612
C      -1.015877   -2.339516   -0.067748
C       0.088260   -3.137233    0.467767
O      -1.241384   -3.204423    1.018993
H       0.561670    2.007751    0.183758
H      -0.835150    1.631648   -0.767450
H      -2.116765   -0.595044    0.577156
H      -2.506843   -0.361898   -1.863991
H      -0.775509   -0.598839   -2.190415
H      -2.763640   -2.774707   -1.296172
H      -1.252784   -3.050154   -2.194100
H       0.407391   -4.028852   -0.071477
H       0.827183   -2.657069    1.101146
