19

C       0.053989    1.068185    0.687314
O      -0.189129   -0.302970    0.424945
C      -1.400738   -0.539662   -0.245428
C      -1.516956   -2.051162   -0.508402
C      -2.445654   -2.545998    0.593393
O      -3.248550   -3.656749    0.340611
C      -2.089584   -2.160424    2.017889
C      -3.031942   -1.309383    1.187675
O      -2.526262   -0.166095    0.541917
H       1.030706    1.131650    1.171624
H       0.078555    1.651847   -0.245626
H      -0.710829    1.493418    1.346566
H      -1.443542    0.080715   -1.151786
H      -1.999552   -2.240638   -1.471484
H      -0.524496   -2.507476   -0.511295
H      -2.730530   -4.447167    0.528057
H      -2.557531   -2.751421    2.798651
H      -1.095811   -1.783844    2.229274
H      -4.076113   -1.214616    1.458236
