14

N      -0.075889    1.337404    0.008109
C      -0.037592    0.058561    0.001318
C      -1.291933   -0.673654    0.004856
C      -1.504961   -2.004392   -0.000685
C      -0.549826   -3.085107   -0.011677
N       0.739018   -3.096601   -0.019200
N       1.504279   -1.984915   -0.017992
C       1.329794   -0.607598   -0.010150
O       2.329798    0.083705   -0.012792
H       0.888830    1.687878    0.004183
H      -2.153011   -0.012311    0.013198
H      -2.539980   -2.335372    0.003614
H      -0.971677   -4.087427   -0.014288
H       2.490694   -2.214421   -0.024966
