15

C      -0.093328    1.419449    0.006535
C      -0.038835   -0.033145   -0.008713
C       0.035474   -1.237183   -0.016924
C       0.044538   -2.651997   -0.027332
N       1.158664   -3.361116   -0.115616
O       0.765740   -4.675871   -0.107090
C      -0.583074   -4.748966   -0.010171
C      -1.114253   -3.498204    0.043983
N      -2.426712   -3.064028    0.208939
H       0.901270    1.843516    0.180701
H      -0.462229    1.814981   -0.946369
H      -0.755715    1.783843    0.799334
H      -1.004369   -5.740755    0.008745
H      -3.118841   -3.663934   -0.217851
H      -2.552564   -2.106353   -0.092816
