15

O      -0.181912    0.040137    0.554608
C      -0.133608    1.208572    0.308629
C      -1.202690    2.082597   -0.347045
C      -0.721635    3.491031   -0.068007
C      -1.345356    4.720694   -0.597200
N      -1.435527    4.396632    0.841342
C       0.774686    3.333675    0.167123
O       0.959332    1.970733    0.586240
H      -1.217504    1.852173   -1.419016
H      -2.189427    1.845125    0.055964
H      -0.733753    5.588595   -0.831264
H      -2.232145    4.615379   -1.217382
H      -2.358395    4.027027    1.058751
H       1.360099    3.498818   -0.745329
H       1.133082    3.994892    0.958005
