15

C      -0.021837    1.426637    0.061171
N       0.000712   -0.018954    0.044475
C      -0.012284   -0.755722   -1.131708
O      -0.042755   -0.347993   -2.276446
N       0.017814   -2.078330   -0.690972
C       0.047344   -2.148054    0.686629
C       0.037178   -0.872929    1.160456
C       0.057408   -0.404736    2.485177
C       0.074140    0.022392    3.612226
H       0.871804    1.828757    0.548145
H      -0.049020    1.753640   -0.979385
H      -0.906377    1.800557    0.585767
H       0.015260   -2.850135   -1.334050
H       0.073446   -3.077980    1.226566
H       0.089116    0.388372    4.608831
