13

F      -0.339780   -0.028472   -0.294199
C       0.005410    1.196669    0.055083
F       1.335743    1.237698    0.212150
F      -0.289457    2.029780   -0.972102
C      -0.701862    1.651846    1.336464
N      -1.047600    0.777923    2.180100
N      -0.814169    3.042110    1.398424
C      -1.324745    3.776338    2.447750
N      -1.749589    3.246492    3.524480
H      -1.462390    1.224908    3.001143
H      -0.557654    3.548971    0.566497
H      -1.312042    4.850256    2.231477
H      -2.076632    3.958785    4.172189
