23

C       0.007665    1.553585    0.089669
C      -0.006035    0.031314   -0.011592
C       0.545135   -0.464252   -1.364357
C       0.146797   -1.892064   -1.695130
C       1.150329   -2.914150   -2.173428
C       0.553981   -3.032480   -0.791434
C       1.362684   -2.760850    0.465316
C       0.658208   -1.803382    1.438519
O       0.772942   -0.437240    1.085777
H       1.024591    1.935698   -0.047379
H      -0.635092    1.999175   -0.675312
H      -0.345107    1.871160    1.074128
H      -1.042671   -0.330613    0.104293
H       0.192931    0.200137   -2.163102
H       1.635316   -0.356076   -1.331057
H      -0.849674   -1.978330   -2.121662
H       0.851293   -3.625325   -2.936016
H       2.187340   -2.599084   -2.243547
H      -0.196006   -3.810016   -0.668105
H       1.564006   -3.708196    0.981665
H       2.339926   -2.328454    0.222301
H      -0.402886   -2.086655    1.543670
H       1.120044   -1.877926    2.429307
