19

C       0.161307    1.454337   -0.467968
C      -0.099257    0.074611    0.078052
O       1.008771   -0.834237    0.158259
C       0.373181   -0.433234    1.375854
C       1.222272    0.357260    2.354446
O       0.365437    0.963977    3.326305
C       0.747873    0.570516    4.643867
C       1.882296   -0.395689    4.449499
C       2.157890   -0.510678    3.156252
H       1.080926    1.886412   -0.069517
H       0.251943    1.415213   -1.558528
H      -0.672332    2.120795   -0.222831
H      -1.006567   -0.394018   -0.309606
H      -0.216102   -1.215150    1.859706
H       1.775899    1.134880    1.807908
H       1.047866    1.455113    5.228321
H      -0.112867    0.119216    5.160593
H       2.381812   -0.895159    5.269919
H       2.921346   -1.122261    2.694083
