22

C      -0.113241    1.611551    0.001979
C       0.007206    0.083243    0.004917
C       0.754256   -0.493094    1.224659
C       0.079397   -0.107152    2.549087
C       0.886487   -2.040051    1.112252
C       1.611628   -2.538871   -0.167420
O       1.760902   -3.939139   -0.193715
C       1.611407   -2.592452    2.261971
N       2.229878   -3.051387    3.125165
H       0.870315    2.085781    0.093773
H      -0.560839    1.957211   -0.934599
H      -0.739225    1.979303    0.819290
H      -0.995134   -0.364889   -0.043478
H       0.521470   -0.217593   -0.913716
H       1.773311   -0.081158    1.225858
H       0.069045    0.976540    2.685258
H      -0.959027   -0.458741    2.575287
H       0.603349   -0.541776    3.404486
H      -0.116860   -2.486258    1.119173
H       1.008797   -2.287031   -1.041689
H       2.576562   -2.016180   -0.257661
H       2.332227   -4.196210    0.539710
