15

C      -0.085907    1.429783    0.180375
N      -0.059250    0.016881   -0.163307
C      -1.175188   -0.757802   -0.074529
N      -1.235589   -2.052384    0.006982
C      -2.612506   -2.319908   -0.004684
C      -3.295418   -1.149402   -0.083520
O      -2.374997   -0.126029   -0.126880
C      -3.143640   -3.628716    0.062589
C      -3.601415   -4.740216    0.120218
H       0.876372    1.870059   -0.087930
H      -0.864235    1.932923   -0.396842
H      -0.274094    1.614497    1.247343
H       0.779112   -0.494383    0.065696
H      -4.333426   -0.872132   -0.108664
H      -4.002111   -5.722052    0.170070
