17

O      -0.066273    1.417180    0.091321
C       0.029681    0.039836    0.069348
C       0.964770   -0.807222    1.007176
C       0.734934   -1.943759   -0.036479
C      -0.785290   -2.173857   -0.019432
C      -1.620241   -1.715882    1.148163
C      -1.297526   -0.724952    0.063486
C       0.779888   -0.757178   -1.048865
O       1.300591   -0.486926   -2.087361
H       0.696795    1.778565   -0.375072
H       1.993384   -0.440135    0.994404
H       0.641883   -0.976855    2.032294
H       1.400108   -2.799387   -0.112066
H      -1.200498   -2.879420   -0.728653
H      -2.643419   -2.077501    1.132822
H      -1.217864   -1.627294    2.149573
H      -2.076664   -0.345685   -0.586112
