18

C      -0.147062    1.489421    0.074045
C       0.135791    0.022726   -0.004994
C       0.208869   -0.808805   -1.240894
C       1.229722   -1.911419   -1.121027
C       1.097470   -2.153265    0.372902
O       1.763585   -3.174924    1.030931
C      -0.315778   -1.866261    0.790490
C       0.757477   -0.850124    1.100662
N      -0.934494   -0.999052   -0.275073
H       0.779522    2.072955    0.019203
H      -0.794670    1.795842   -0.752817
H      -0.652938    1.743292    1.011901
H      -0.082286   -0.399626   -2.201832
H       0.967638   -2.803259   -1.699384
H       2.232401   -1.579248   -1.415217
H       2.688620   -2.922138    1.124095
H      -0.921065   -2.503302    1.421010
H       1.187752   -0.543741    2.044165
