14

O      -0.010956    1.495909    0.072665
C       0.024606    0.102128   -0.009333
C      -1.332667   -0.608406   -0.201470
C      -1.980818    0.107902   -1.397464
C      -0.721696    0.106810   -2.292927
O      -0.555249    0.545574   -3.394780
C       0.265989   -0.627201   -1.369025
O      -0.595277   -1.693760   -0.858851
H       0.886086    1.831376    0.165480
H       0.610132   -0.373655    0.784395
H      -1.955862   -0.932618    0.630195
H      -2.795001   -0.474229   -1.834867
H      -2.319415    1.126359   -1.195469
H       1.230538   -0.946171   -1.758154
