21

O      -0.182748    1.373289    0.632694
C      -0.057987    0.070493    0.083780
C      -1.396382   -0.603558   -0.083577
C      -2.076219   -1.230618    1.111135
C      -1.640061   -2.097475   -0.042963
C      -2.699307   -2.442618   -1.086543
C      -3.399086   -1.098519   -1.389596
C      -2.311820   -0.030281   -1.151198
O      -2.809473    1.240754   -0.718750
H      -0.987792    1.755094    0.258564
H       0.459927    0.104446   -0.891782
H       0.579236   -0.504688    0.766016
H      -1.483562   -1.278245    2.018237
H      -3.132586   -1.057727    1.285803
H      -0.819295   -2.790114    0.111766
H      -2.210889   -2.831689   -1.987671
H      -3.403017   -3.210084   -0.746636
H      -3.816440   -1.057958   -2.399753
H      -4.222389   -0.913871   -0.692932
H      -1.715827    0.108938   -2.068014
H      -3.242397    1.670518   -1.463341
