17

O       0.060381    1.503433    0.041627
C       0.033684    0.111986    0.064442
C      -1.337406   -0.659004   -0.107001
C      -1.820567   -0.041884   -1.424652
O      -0.564814    0.011773   -2.169282
C       0.354016   -0.633822   -1.261698
C      -0.461454   -1.783087   -0.678222
C      -0.077941   -3.085613   -0.153151
O      -0.892775   -2.946456   -1.335899
H      -0.081978    1.760924   -0.879629
H       0.600291   -0.243154    0.926406
H      -2.054253   -0.799350    0.698849
H      -2.539105   -0.671167   -1.958375
H      -2.224346    0.968851   -1.310885
H       1.337879   -0.716538   -1.718128
H       0.924717   -3.473548   -0.326477
H      -0.590544   -3.491047    0.717842
