16

C       0.045101    1.317527    0.298560
C      -0.004678   -0.157797   -0.010134
O       0.989673   -0.836160   -0.144549
C      -1.379167   -0.838261   -0.148550
O      -1.201879   -2.201672   -0.388868
C      -2.228397   -0.571697    1.090197
C      -2.892033   -1.663089    1.808046
O      -1.701214   -1.056544    2.324199
H       1.045081    1.704232    0.098723
H      -0.699515    1.874184   -0.278562
H      -0.185358    1.464804    1.360218
H      -1.891690   -0.358930   -1.002672
H      -0.238691   -2.336098   -0.369552
H      -2.660234    0.429254    1.142799
H      -3.800404   -1.457690    2.372324
H      -2.766956   -2.675339    1.435908
