27

C       0.155953    1.567409    0.026641
C       0.058361    0.041419    0.036324
O       0.744844   -0.507196    1.161869
C      -1.394452   -0.452016   -0.037013
C      -1.495440   -1.979421   -0.123511
C      -2.916040   -2.597028   -0.105392
C      -3.763782   -2.069582   -1.278000
C      -2.766355   -4.123726   -0.247420
C      -3.631648   -2.293267    1.224364
H       1.200226    1.881764    0.105425
H      -0.266600    1.987867   -0.891711
H      -0.395355    1.997316    0.872847
H       0.607802   -0.354864   -0.827549
H       0.326009   -0.154050    1.955133
H      -1.925348   -0.077582    0.849974
H      -1.876684    0.017085   -0.903197
H      -0.991386   -2.306060   -1.044188
H      -0.914173   -2.404171    0.703038
H      -3.265761   -2.248617   -2.237729
H      -4.736594   -2.572562   -1.310406
H      -3.954383   -0.994931   -1.194481
H      -2.165606   -4.539498    0.569055
H      -3.743468   -4.619279   -0.230166
H      -2.274634   -4.387274   -1.190406
H      -3.806950   -1.221498    1.360788
H      -4.607586   -2.790054    1.260907
H      -3.045784   -2.650149    2.079039
