17

O       0.173406    1.554590   -0.391742
C      -0.045875    0.178367   -0.134817
C      -1.512708   -0.238191   -0.380079
N      -1.499187   -0.698251   -1.767544
C      -2.644073   -0.901450   -2.515473
N      -3.793153   -0.666108   -2.023538
C      -0.222516   -1.009500   -2.238873
O       0.025674   -1.426796   -3.345313
C       0.743539   -0.730638   -1.092618
H      -0.088149    1.744428   -1.300121
H       0.236832    0.035045    0.909337
H      -1.836395   -1.044619    0.288707
H      -2.200612    0.599904   -0.256343
H      -2.410419   -1.267114   -3.518341
H      -4.516440   -0.864108   -2.712854
H       1.669449   -0.274441   -1.445837
H       0.997000   -1.688820   -0.623664
