18

C       0.019355    1.515149   -0.012052
C      -0.038290    0.012120    0.083704
C      -1.365888   -0.701652   -0.212892
C      -1.312301   -1.947806    0.633957
C      -0.208982   -1.980555    1.403531
C       0.090089   -3.025151    2.387781
O       1.064877   -3.028519    3.105775
C       0.673162   -0.807633    1.121114
N       1.191841   -0.708962   -0.262910
H       1.014184    1.874594    0.260275
H      -0.189053    1.849692   -1.035002
H      -0.717203    1.981124    0.651499
H      -2.225395   -0.078729    0.071237
H      -1.494851   -0.923280   -1.280964
H      -2.074054   -2.720493    0.607076
H      -0.670495   -3.836271    2.442341
H       1.317005   -0.407700    1.895698
H       0.992865   -1.569651   -0.770121
