21

C       0.456949    1.630915   -0.002646
C      -0.060453    0.181956   -0.042281
C       0.442508   -0.504558   -1.319902
O      -0.143952   -1.762924   -1.582596
C       0.462187   -2.858084   -0.925829
C      -0.022102   -3.064221    0.509552
C       0.332343   -1.975782    1.498809
O       1.554714   -1.244781    1.317817
C       0.311009   -0.527214    1.249243
H       1.550889    1.653681    0.052738
H       0.151870    2.184278   -0.896160
H       0.068714    2.165015    0.869917
H      -1.158262    0.204866   -0.091667
H       0.182002    0.130429   -2.173684
H       1.538364   -0.589060   -1.284147
H       0.201269   -3.745213   -1.512684
H       1.556447   -2.754650   -0.938024
H      -1.112424   -3.190782    0.510446
H       0.400916   -4.010947    0.872213
H       0.164374   -2.272897    2.537132
H       0.134882    0.094135    2.131893
