21

C       0.053392    1.556061    0.023802
C       0.030352    0.021890    0.051713
C       0.760095   -0.501038    1.297620
C      -1.413399   -0.536078   -0.022573
C      -2.182399   -0.149437   -1.278470
C      -2.658259   -1.205813   -1.942332
C      -2.252373   -2.467438   -1.254675
O      -0.815810   -2.651545   -1.195052
C      -1.479611   -2.066898   -0.069653
H       1.081381    1.926714    0.092203
H      -0.379778    1.960548   -0.895324
H      -0.504399    1.974682    0.870665
H       0.555861   -0.352795   -0.834806
H       0.837736   -1.591954    1.295769
H       1.776619   -0.097598    1.348050
H       0.239829   -0.199858    2.215459
H      -1.956081   -0.184655    0.869222
H      -2.289397    0.880954   -1.596703
H      -3.232401   -1.179017   -2.860125
H      -2.828223   -3.385274   -1.323911
H      -1.447810   -2.653322    0.844409
