19

O       0.036730    1.322799   -0.073065
C      -0.006318   -0.085483   -0.040881
C       1.008860   -0.626451   -1.070194
C       0.708670   -0.125019   -2.408417
C       0.421844    0.334697   -3.482745
C      -0.042251   -0.662716    1.403107
C      -1.491374   -0.087061    1.510576
C      -1.416529   -0.765282    0.107111
C      -0.703907   -1.948343    0.824566
H      -0.037619    1.592664   -0.997051
H       2.007082   -0.283324   -0.771022
H       1.039439   -1.718056   -1.089097
H       0.185970    0.713803   -4.446382
H       0.753503   -0.600449    2.147415
H      -2.139485   -0.580758    2.238350
H      -1.591933    0.995007    1.532956
H      -2.204036   -0.824336   -0.645723
H      -0.094058   -2.633159    0.234237
H      -1.323921   -2.504706    1.530537
