18

C      -0.222343    1.525459    0.036186
C       0.070145    0.035142   -0.034348
C      -1.095771   -0.886956    0.409905
O      -0.398606   -1.302992    1.602322
C       0.806655   -0.611455    1.175743
C       1.838985   -1.509419    0.554403
C       1.838004   -1.413381   -0.776045
C       0.830744   -0.415964   -1.301159
H       0.700663    2.111239   -0.039029
H      -0.881319    1.837841   -0.782354
H      -0.712839    1.788824    0.979116
H      -2.040466   -0.382982    0.648581
H      -1.299870   -1.729950   -0.263949
H       1.186787    0.030259    1.979754
H       2.479715   -2.159584    1.139282
H       2.489227   -1.974438   -1.438981
H       0.162275   -0.858680   -2.051518
H       1.327476    0.428249   -1.799249
