19

O      -0.109288    1.422007   -0.464917
C      -0.031117    0.012473   -0.476716
C      -1.247989   -0.590948    0.228725
O      -2.426844   -0.008054   -0.348587
C      -3.204731   -0.992078   -1.034147
C      -2.298495   -2.209816   -1.209424
C      -1.420469   -2.124954    0.061775
C      -0.185083   -2.889925    0.005713
C       0.830304   -3.531674   -0.041730
H      -1.010294    1.631675   -0.742113
H       0.035334   -0.381317   -1.504577
H       0.886916   -0.272209    0.045173
H      -1.220571   -0.304949    1.286350
H      -4.090730   -1.241405   -0.432123
H      -3.548394   -0.569244   -1.983375
H      -2.849263   -3.150212   -1.275357
H      -1.674371   -2.114853   -2.101995
H      -2.015533   -2.485583    0.910342
H       1.729393   -4.095446   -0.081732
