23

C       0.402917    0.892895   -0.625452
O       0.107440   -0.421012   -0.213601
C      -1.258144   -0.641611    0.101200
C      -2.130784   -0.880353   -1.137483
O      -2.046824   -2.265716   -1.442609
C      -1.454343   -2.995541   -0.355323
C      -0.117188   -3.577722   -0.809415
C      -1.396466   -1.992377    0.823274
C      -0.364852   -2.265138    1.914680
H       1.482259    0.945839   -0.787164
H      -0.104034    1.165950   -1.562765
H       0.121317    1.629161    0.143909
H      -1.634352    0.194794    0.709660
H      -3.173838   -0.596280   -0.925862
H      -1.795182   -0.302179   -2.005877
H      -2.135017   -3.821306   -0.107600
H       0.596998   -2.780673   -1.027500
H       0.307825   -4.236152   -0.044604
H      -0.271971   -4.167928   -1.717160
H      -2.394979   -1.982515    1.278630
H       0.652262   -2.196198    1.526306
H      -0.462636   -1.537470    2.726949
H      -0.507068   -3.261720    2.345213
