19

C      -0.177788    1.455411   -0.130570
N      -0.175361    0.015647   -0.300870
C       0.912572   -0.670988   -0.752514
O       1.973681   -0.146568   -1.046471
C       0.718403   -2.163596   -0.876159
C      -0.446374   -3.112514   -0.493022
N       0.582462   -4.092943   -1.082508
C       0.786550   -3.017347   -2.165900
C       1.618017   -3.274016   -0.286444
H      -0.383689    1.733691    0.908885
H       0.814896    1.813483   -0.406614
H      -0.923210    1.933816   -0.775716
H      -1.010564   -0.502836   -0.085328
H      -0.647324   -3.281979    0.568857
H      -1.372996   -3.059510   -1.072740
H      -0.045085   -2.944432   -2.872068
H       1.747840   -3.084619   -2.678941
H       2.636526   -3.359077   -0.669571
H       1.575393   -3.446500    0.792327
