21

C      -0.091855    1.462661   -0.002474
C       0.039372   -0.031020   -0.015278
C       0.959854   -0.877048   -0.895984
C       0.098462   -2.095839   -0.457910
C      -0.048987   -3.302560   -1.337642
O       1.224905   -3.929864   -1.427214
C       0.421088   -2.232639    1.058708
C      -0.289832   -0.892311    1.219700
C      -1.053908   -1.074717   -0.074029
H       0.810650    1.939531    0.398512
H      -0.255495    1.857577   -1.011869
H      -0.936441    1.780830    0.618788
H       0.813592   -0.642879   -1.955985
H       2.032211   -0.912547   -0.672272
H      -0.801310   -3.985934   -0.909498
H      -0.413547   -2.995564   -2.332280
H       1.138666   -4.705837   -1.988520
H      -0.150176   -3.046224    1.517090
H       1.475834   -2.318207    1.341511
H      -0.646076   -0.427018    2.130857
H      -2.107239   -1.014497   -0.310834
