18

C      -0.021772    1.469139   -0.020757
C      -0.014050    0.013867   -0.017698
C      -0.009919   -1.192991   -0.024055
C       0.019537   -2.611940    0.001430
C      -0.340760   -3.501721   -1.174116
C      -1.153090   -3.616305    0.079539
C      -0.401319   -4.369887    1.211387
N       0.914528   -4.829438    0.692328
C       0.727426   -3.428744    1.138477
H       0.741440    1.868349    0.656984
H       0.184821    1.870599   -1.019546
H      -0.989584    1.869205    0.303435
H      -0.830475   -2.970489   -1.983033
H       0.329829   -4.298494   -1.468895
H      -2.205944   -3.373333    0.127502
H      -0.866417   -4.841307    2.066555
H       1.380506   -5.324191    1.452343
H       1.334111   -2.985690    1.916843
