14

O       0.055655    1.419451    0.069737
C       0.023443    0.041753    0.084540
C      -0.361675   -0.820296    1.294915
C      -1.527605   -0.186954    1.963970
N      -1.839778    0.078076    3.144448
O      -2.252038    0.010877    0.775459
C      -1.245555   -0.744418    0.024495
C      -1.670358   -1.711891   -0.915709
C      -2.012747   -2.526769   -1.731239
H      -0.829951    1.737049    0.290507
H       0.849653   -0.379375   -0.480159
H       0.253992   -1.619639    1.680635
H      -2.765071    0.505381    3.205105
H      -2.319061   -3.248489   -2.448188
