25

C       0.015934    1.602169    0.034734
C       0.025675    0.064155    0.047199
C       0.595966   -0.475221   -1.293154
C      -0.152067   -1.657333   -1.933965
C      -0.331655   -2.902255   -1.034098
C       0.952213   -3.339788   -0.386525
C       1.389868   -2.885104    0.788429
C       0.651173   -1.915894    1.681137
C       0.784483   -0.422251    1.302903
H       1.033627    1.998830   -0.066499
H      -0.571779    1.986101   -0.805716
H      -0.408996    2.010969    0.957759
H      -1.019841   -0.265694    0.139089
H       0.593780    0.338173   -2.028587
H       1.648230   -0.745330   -1.152382
H      -1.146578   -1.326091   -2.260546
H       0.387289   -1.946607   -2.845149
H      -1.077550   -2.676035   -0.263873
H      -0.751732   -3.713493   -1.639671
H       1.581513   -4.022797   -0.954272
H       2.362926   -3.216914    1.145538
H      -0.416006   -2.169802    1.716595
H       1.020700   -2.034734    2.705986
H       1.848098   -0.169512    1.192950
H       0.421959    0.161896    2.158698
