19

C       0.226713    1.556561   -0.118004
C      -0.032323    0.056308    0.054749
C       0.465553   -0.793823   -1.133756
C       1.909746   -1.154929   -0.751783
C       1.890327   -1.222416    0.763180
N       2.753253   -1.810783    1.474538
N       0.730290   -0.509240    1.184950
C       0.321490   -0.366785    2.484157
O       0.903907   -0.786273    3.461756
H       1.282970    1.754550   -0.326003
H      -0.367399    1.948836   -0.949339
H      -0.047236    2.110492    0.784985
H      -1.100390   -0.104403    0.234450
H      -0.138824   -1.702246   -1.215131
H       0.387386   -0.252928   -2.078904
H       2.262556   -2.096786   -1.172734
H       2.614229   -0.375589   -1.064434
H       2.533570   -1.705650    2.465774
H      -0.636637    0.184633    2.555855
