15

O       0.165370    1.465029   -0.288505
C       0.015690    0.100419   -0.004075
C       0.145618   -0.310662    1.511699
N      -1.267244   -0.678465    1.475857
C      -1.494989   -0.280340    0.090892
C      -2.168823   -1.013562    2.429243
O      -3.355998   -1.143711    2.222612
C       0.815245   -0.730616   -0.911222
N       1.477945   -1.360929   -1.617664
H       1.104539    1.675549   -0.351852
H       0.832924   -1.135145    1.723628
H       0.380578    0.552838    2.143400
H      -2.140695    0.594714   -0.026216
H      -1.831313   -1.085483   -0.566432
H      -1.691416   -1.165985    3.418416
