20

O      -0.108299    1.486995   -0.256614
C       0.036314    0.108293    0.058200
C      -1.355319   -0.506124    0.038018
C      -1.941791   -0.646118   -1.397117
C      -1.556585   -2.150915   -1.384072
C      -1.414224   -2.063270    0.159731
C      -0.299430   -2.830185    0.843958
O      -0.597856   -4.214453    0.712866
H       0.768221    1.880315   -0.295834
H       0.689370   -0.393845   -0.673915
H       0.495527   -0.023703    1.051629
H      -1.973617    0.044579    0.752983
H      -3.024538   -0.497268   -1.413055
H      -1.494215   -0.008707   -2.162721
H      -2.280465   -2.866159   -1.778899
H      -0.593196   -2.337835   -1.869093
H      -2.357500   -2.353368    0.634592
H       0.671268   -2.593674    0.378952
H      -0.235115   -2.536095    1.905087
H       0.118638   -4.716141    1.112367
