20

C      -0.657342    1.320017    0.247922
C      -0.236915   -0.144207    0.174048
O      -1.349859   -1.004899    0.350941
C       0.732988   -0.443200   -1.010462
C       1.921265   -0.347361   -0.013526
C       0.920415   -0.547931    1.143197
C       1.077267    0.250026    2.421305
N       0.138767   -0.056066    3.371427
O       1.939074    1.091399    2.590860
H       0.206901    1.987659    0.196717
H      -1.318527    1.564285   -0.592972
H      -1.191967    1.524346    1.180469
H      -2.082744   -0.669987   -0.177576
H       0.580579   -1.463958   -1.369833
H       0.716900    0.246007   -1.859137
H       2.717619   -1.086392   -0.109808
H       2.367994    0.647814    0.031131
H       0.788030   -1.608948    1.375471
H      -0.665161   -0.610529    3.124500
H       0.078135    0.540451    4.181325
