17

O      -0.757186    1.024351    0.466525
C       0.311315    0.855606   -0.063016
C       1.436339    1.853236   -0.011191
C       1.605912    2.675573    1.275949
O       2.475399    3.749863    0.856533
C       2.748870    3.512386   -0.528680
C       3.612464    2.247719   -0.630710
O       2.678523    1.196903   -0.288710
C       1.407295    2.990662   -1.063240
H       0.548346   -0.053441   -0.656376
H       0.655828    3.073376    1.646587
H       2.089145    2.082396    2.058621
H       3.169358    4.415091   -0.970737
H       4.012562    2.073745   -1.637304
H       4.434949    2.266529    0.090856
H       1.438693    2.613921   -2.087202
H       0.586230    3.694737   -0.926857
