20

C      -0.014713    1.448862   -0.000986
N       0.022833   -0.003489   -0.035353
C       0.690074   -0.515410   -1.223994
C       0.476094   -2.022687   -1.340622
O       1.147993   -2.443502   -2.517658
C       1.014703   -2.733906   -0.090373
C       0.546379   -2.078961    1.199603
O       0.210615   -2.708998    2.173066
C       0.582224   -0.552914    1.195211
H       0.990746    1.907223    0.063038
H      -0.503809    1.826865   -0.903767
H      -0.592823    1.783387    0.866022
H       0.265305   -0.028481   -2.106579
H       1.779224   -0.306944   -1.227805
H      -0.605983   -2.204798   -1.421547
H       0.983749   -3.384062   -2.637848
H       0.754014   -3.795942   -0.064333
H       2.111226   -2.654604   -0.118636
H       1.640654   -0.244116    1.347940
H       0.009838   -0.198882    2.055934
