21

C      -0.004115    1.525364    0.030251
C       1.323396    0.766391    0.014021
C       0.025118    0.036598   -0.004516
C      -0.574183   -1.031218    0.913930
C      -1.821855   -1.100130   -0.033144
C      -2.343442   -2.536609   -0.067281
C      -0.992296   -3.309152   -0.083800
C      -0.018339   -2.131324   -0.055194
C      -0.572055   -0.987147   -0.973155
H      -0.287677    2.023831    0.952385
H      -0.285587    2.066388   -0.868234
H       1.915774    0.807814   -0.895145
H       1.913711    0.765242    0.925469
H      -0.576018   -1.057784    2.006277
H      -2.538608   -0.277654   -0.014745
H      -2.955383   -2.774124    0.808941
H      -2.953394   -2.732927   -0.955013
H      -0.870515   -3.966188    0.783451
H      -0.868526   -3.924989   -0.980504
H       1.054180   -2.331898   -0.058669
H      -0.571428   -0.962694   -2.065553
