17

C       0.025446    1.430746   -0.069821
C       1.340801    0.714831    0.030131
C       2.010210    0.444344    1.370825
C       1.005344   -0.452837    2.085257
C      -0.054182   -0.756106    1.322558
C       0.008998   -0.079577    0.003962
C       0.477981   -0.752396   -1.328928
O       0.740589    0.273182   -2.293206
C       1.734265   -0.004008   -1.299199
H      -0.309814    1.938740    0.827967
H      -0.237447    1.911853   -1.003380
H       2.979140   -0.058642    1.248271
H       2.218777    1.360968    1.937441
H       1.137129   -0.765127    3.117468
H      -0.873880   -1.395901    1.633315
H       0.216708   -1.736940   -1.698854
H       2.736026   -0.239546   -1.641482
