19

O       0.127928    1.391893    0.008920
C       0.087772   -0.024933   -0.037131
C      -1.345597   -0.571150   -0.003018
C      -1.391292   -2.066636   -0.040577
O      -0.756355   -2.815859    1.052100
C      -1.293189   -3.839401    0.166678
C      -2.597985   -3.057635   -0.173669
C      -2.381803   -3.227036   -1.692780
C      -0.943366   -3.086291   -1.150578
H      -0.170481    1.666470    0.881743
H       0.568392   -0.305935   -0.980104
H       0.673511   -0.478420    0.774376
H      -1.846615   -0.230769    0.913354
H      -1.911925   -0.166443   -0.849892
H      -1.153713   -4.886997    0.431254
H      -3.518583   -3.039452    0.410187
H      -2.649393   -4.198499   -2.117071
H      -2.746314   -2.419983   -2.334207
H       0.011498   -3.103536   -1.676334
