18

C       0.062254    1.462328   -0.007207
C       0.000757   -0.052232    0.079841
O      -0.040641   -0.650205    1.124113
C       0.000420   -0.773022   -1.268371
O       0.033470   -2.157088   -1.073672
C       0.015667   -2.892466   -2.272839
C       0.060548   -4.373333   -1.876552
C       0.047495   -5.250526   -3.042467
N       0.036519   -5.927018   -3.978935
H       1.046523    1.774917   -0.375341
H      -0.681980    1.851984   -0.710018
H      -0.100893    1.890681    0.982103
H      -0.901065   -0.460621   -1.826612
H       0.864758   -0.421483   -1.860205
H      -0.894476   -2.683376   -2.856715
H       0.880421   -2.643561   -2.907951
H       0.962802   -4.562178   -1.286024
H      -0.797143   -4.602417   -1.235900
