16

O       0.539049    0.967118   -1.463919
C       0.602915    0.880583   -0.265646
C       0.943859    2.039628    0.679348
O       1.103467    1.770857    1.851815
C       1.110341    3.399268    0.120149
C       2.048167    4.350299    0.791514
N       0.630487    4.630816    0.923605
C       0.209821    5.244827   -0.390838
C       0.600370    3.980753   -1.197647
H       0.450110   -0.068967    0.289575
H       2.500148    3.992618    1.710897
H       2.670528    4.990899    0.168087
H      -0.861494    5.448909   -0.375924
H       0.750185    6.169032   -0.618302
H       1.341804    4.085002   -1.993483
H      -0.262090    3.449647   -1.596585
