17

O       0.004832    0.067090    0.163057
C       0.037726    1.261005    0.022358
N      -1.048948    2.145491   -0.076100
C      -0.399724    3.476117   -0.010657
C       0.704696    3.277381   -1.083633
C       1.228413    2.233964   -0.038309
C       0.728150    3.258143    1.021361
C       1.458773    4.234523    1.843012
N       0.702946    3.108873    2.455422
H      -1.874464    1.941894    0.469698
H      -1.093774    4.315456   -0.002252
H       0.374028    2.899421   -2.052032
H       1.368741    4.136532   -1.187168
H       2.224197    1.800551   -0.046152
H       2.537365    4.169041    1.957155
H       1.054232    5.240740    1.928818
H      -0.176452    3.436312    2.848964
