23

C       0.539602   -0.505247    1.303721
C      -0.034910    0.072851    0.002619
C       0.060980    1.603673   -0.015012
C       0.664967   -0.534423   -1.211399
C       0.495278   -2.060912   -1.396821
O       0.285485   -2.236314   -2.793124
C       0.403577   -0.962242   -3.408879
C      -0.556910   -0.843459   -4.570413
O       0.099976   -0.017005   -2.412645
H       0.425198   -1.592653    1.359883
H       1.607418   -0.274655    1.398214
H       0.032057   -0.074309    2.172072
H      -1.094182   -0.209223   -0.071111
H       1.104784    1.930640    0.065177
H      -0.349842    2.010349   -0.941562
H      -0.487666    2.035851    0.828009
H       1.739544   -0.282436   -1.177474
H       1.379315   -2.619085   -1.065983
H      -0.380855   -2.441463   -0.856232
H       1.450117   -0.821166   -3.743220
H      -1.581510   -0.972029   -4.213386
H      -0.458044    0.138342   -5.040643
H      -0.336722   -1.613820   -5.313515
