21

C      -0.455832    1.447428    0.005944
C       0.139407    0.029411    0.056966
C       0.847002   -0.373832   -1.202343
C       2.126162   -0.749073   -1.323088
C       2.443301   -1.182915   -2.720426
C       3.833496   -1.115111   -3.285004
O       1.646756   -2.332786   -3.123696
C       1.187848   -1.025572   -3.478549
C       0.129072   -0.454921   -2.545278
H       0.325121    2.193757   -0.171131
H      -1.197644    1.543429   -0.793110
H      -0.951868    1.692846    0.949777
H       0.834084   -0.048184    0.900693
H      -0.671543   -0.685398    0.257493
H       2.847704   -0.784373   -0.514217
H       4.506836   -1.786042   -2.739864
H       3.835890   -1.414217   -4.335924
H       4.236380   -0.099803   -3.205328
H       1.158100   -0.815572   -4.545310
H      -0.759970   -1.096270   -2.495127
H      -0.208790    0.530796   -2.889858
