18

N      -0.013910    1.268031   -0.176433
C       0.060452   -0.066986    0.014162
O       1.078723   -0.714370    0.169012
C      -1.338686   -0.733831    0.018951
O      -2.328719   -0.062201   -0.166870
C      -1.349076   -2.220382    0.287472
C      -2.699215   -2.862433    0.086093
C      -3.066549   -3.452651   -1.251804
C      -2.805485   -4.356947   -0.072042
H       0.825552    1.820322   -0.214474
H      -0.920018    1.687697   -0.308736
H      -0.570408   -2.683570   -0.329734
H      -0.983931   -2.352119    1.317709
H      -3.505625   -2.373483    0.622981
H      -4.086217   -3.338096   -1.601356
H      -2.321991   -3.424759   -2.041027
H      -1.887171   -4.935386   -0.070488
H      -3.647269   -4.863338    0.386975
