18

C      -0.024152    1.616565    0.034023
C       0.123047    0.100188   -0.064728
C       0.486162   -0.756295   -1.237740
C       1.783773   -0.361170   -1.956952
C       2.552478    0.769586   -1.385012
N       2.619743   -0.544629   -0.721121
C       1.331663   -0.835293    0.046111
C       1.401188   -1.835020    1.053522
C       1.458263   -2.676621    1.912532
H       0.122981    2.116535   -0.925545
H      -1.038715    1.854462    0.367846
H       0.665116    2.053860    0.763223
H      -0.667673   -0.403491    0.489175
H      -0.170107   -1.518984   -1.636935
H       2.079414   -0.840647   -2.884187
H       3.489213    1.002616   -1.885711
H       2.092203    1.613918   -0.897754
H       1.513163   -3.422569    2.665841
