18

C       0.079019    1.159684    0.282027
C       1.417472    1.839647   -0.032828
C       2.254181    0.688136   -0.635250
C       3.154371   -0.081696    0.371528
C       2.505609   -1.437614    0.495456
C       1.446698   -1.577338   -0.298015
C       1.155813   -0.330357   -1.097226
O      -0.119139    0.246272   -0.787438
H       0.123591    0.634615    1.249394
H      -0.774579    1.842450    0.300177
H       1.261617    2.624806   -0.778857
H       1.885253    2.295368    0.843940
H       2.847136    1.043719   -1.479237
H       4.185520   -0.166005    0.005296
H       3.224227    0.423395    1.343862
H       2.890617   -2.200669    1.164683
H       0.822260   -2.460049   -0.376793
H       1.144964   -0.518520   -2.176314
