14

N       0.051594    1.406068   -0.117212
C      -0.005894    0.008563   -0.058574
C      -1.069299   -0.837878   -0.035297
O      -0.621259   -2.153586   -0.057212
C       0.724450   -2.118938   -0.082416
N       1.393704   -3.333478   -0.159804
C       1.164964   -0.829493   -0.088919
O       2.476555   -0.407626   -0.030988
H       0.861605    1.759590    0.378575
H      -0.783288    1.855162    0.235630
H      -2.136503   -0.709474   -0.015347
H       0.992275   -4.037053    0.449575
H       2.376884   -3.211222    0.049142
H       2.729321   -0.067740   -0.897369
