25

C       0.082612    1.598952   -0.007581
C       0.148985    0.069253   -0.015003
C       0.658038   -0.519524    1.306370
C       0.731896   -2.041206    1.306474
C       1.813259   -2.738136    0.429659
C       2.075618   -3.737445    1.582235
C       1.365205   -5.077004    1.415244
O       3.463019   -3.923610    1.802570
C       1.339743   -2.755364    2.546776
H       1.071112    2.036888    0.170500
H      -0.286799    1.988970   -0.961314
H      -0.584970    1.962250    0.781884
H      -0.846946   -0.339926   -0.231781
H       0.798264   -0.264921   -0.834674
H       1.654673   -0.111840    1.527869
H       0.005030   -0.188256    2.126527
H      -0.259584   -2.451968    1.081480
H       1.517126   -3.152703   -0.537526
H       2.689287   -2.097549    0.292032
H       1.816607   -5.646971    0.596997
H       1.439282   -5.673487    2.333905
H       0.300716   -4.942920    1.198131
H       3.570199   -4.565928    2.512753
H       2.069331   -2.118726    3.056158
H       0.652566   -3.179995    3.284726
