19

C      -0.210645    1.482605   -0.058548
C       0.028654   -0.021212   -0.073984
C       1.282150   -0.482535   -0.865976
N       2.009133   -0.637989    0.420008
C       0.757623   -0.602093    1.176213
C       0.674660   -0.023451    2.604205
O       0.063663   -1.270595    3.075565
C       0.198506   -1.854889    1.834801
N      -0.034785   -3.022811    1.440151
H       0.701614    2.025365    0.210430
H      -0.526626    1.827604   -1.048769
H      -0.996092    1.760249    0.652389
H      -0.886878   -0.559207   -0.326306
H       1.118306   -1.420294   -1.408240
H       1.733944    0.251419   -1.542526
H       2.542377   -1.495602    0.521100
H       1.642453    0.146483    3.082515
H       0.006625    0.825640    2.765360
H      -0.389161   -3.614499    2.193674
