18

C       0.156954    1.491246   -0.023516
C      -0.105699    0.025917   -0.091429
C       0.179482   -1.015443   -1.093994
N       0.876711   -1.035166    0.332209
C      -0.193207   -1.645525    1.287934
C      -0.615672   -3.141496    1.130525
C      -0.907094   -3.141103   -0.369201
C      -1.019361   -1.848403   -0.739598
C      -1.230071   -0.884091    0.474165
H       1.144717    1.719682   -0.435426
H      -0.591565    2.051575   -0.594545
H       0.131038    1.849237    1.011755
H       0.876218   -1.040094   -1.922496
H       0.067678   -1.324473    2.299833
H       0.173209   -3.874067    1.335855
H      -1.440162   -3.355894    1.825664
H      -0.493271   -3.910137   -1.014358
H      -2.228934   -0.604006    0.807727
