15

O      -0.204850    1.348435   -0.146510
N      -0.063465   -0.039339   -0.226197
C      -1.131411   -0.633863    0.162155
C      -2.508444   -0.149898    0.319433
C      -3.266971   -1.241139    0.621871
C      -3.751029   -2.078965   -0.560978
N      -2.486466   -2.922190   -0.323751
C      -2.414558   -2.426775    1.068014
C      -1.240211   -2.125893    0.233314
H       0.628400    1.662142   -0.515092
H      -2.853981    0.666401   -0.306698
H      -4.586752   -2.762859   -0.390698
H      -3.840217   -1.581658   -1.529888
H      -2.496365   -3.059898    1.944331
H      -0.364038   -2.760045    0.178444
