17

C       0.030218    1.531738   -0.098241
C      -0.020881    0.035851    0.083011
O       1.214964   -0.687164   -0.044733
C       0.566650   -0.665348    1.228609
C       1.306743    0.020358    2.374649
O       1.586517   -1.005160    3.336392
C       0.915293   -2.161795    3.066605
O       1.003985   -3.126596    3.764980
C       0.084555   -1.980904    1.800645
H       0.881447    1.972258    0.426455
H       0.120649    1.781261   -1.160074
H      -0.889624    1.993114    0.276800
H      -0.860571   -0.455909   -0.412934
H       2.251668    0.451969    2.038369
H       0.703967    0.797792    2.858583
H      -0.973974   -1.957430    2.081123
H       0.235556   -2.817052    1.116109
