23

C      -0.035935    1.550953    0.011044
C       1.273134    0.805742   -0.005713
C       2.335060    0.867604   -1.114670
C       3.390184    1.220020   -0.023866
C       2.356284    0.855446    1.083145
C      -0.011415    0.044759    0.002478
C      -0.564975   -0.875234    1.101791
C      -1.391674   -1.613181    0.006641
C      -0.586192   -0.863089   -1.096042
H      -0.327593    2.053167    0.930297
H      -0.345223    2.063275   -0.896797
H       2.517006   -0.104506   -1.586047
H       2.181034    1.608146   -1.904459
H       4.317226    0.642696   -0.036012
H       3.645142    2.282425   -0.020451
H       2.217618    1.587189    1.883906
H       2.547195   -0.121799    1.540139
H       0.204731   -1.509457    1.555233
H      -1.132699   -0.397597    1.905188
H      -1.330528   -2.703626    0.000026
H      -2.445930   -1.326608    0.018402
H      -1.169269   -0.376665   -1.883003
H       0.174549   -1.492181   -1.571240
