13

N      -0.142981    1.408336    0.083093
C      -0.039511    0.150293   -0.018337
N       1.187025   -0.527586   -0.142995
C       1.414047   -1.515210   -0.888945
O       0.621374   -2.151311   -1.811141
C      -0.732974   -1.965509   -1.932059
N      -1.563206   -1.406102   -1.169720
C      -1.262528   -0.729255    0.026493
N      -1.966184   -0.806302    1.076539
H       0.786708    1.834873    0.040253
H       2.394230   -1.984091   -0.909926
H      -1.057781   -2.455579   -2.846050
H      -2.754195   -1.440144    0.917250
