18

C       0.017522    1.548575    0.066880
C       0.045444    0.043286    0.065431
C      -1.258347   -0.795323    0.244782
C      -0.355549   -1.885766    0.808565
C       0.737394   -0.889075    1.153884
C       0.967386   -1.838713    0.017423
O       1.858235   -2.893031    0.025303
C       0.831275   -0.742408   -1.033329
H       1.029373    1.967831    0.047134
H      -0.516494    1.928113   -0.812827
H      -0.490009    1.936546    0.956970
H      -1.905938   -0.367550    1.017238
H      -1.850873   -1.002863   -0.655188
H      -0.619829   -2.776983    1.364319
H       1.283868   -0.696919    2.065608
H       1.474051   -3.618143   -0.479947
H       0.308885   -0.955382   -1.974765
H       1.800635   -0.278724   -1.240447
