15

O       0.085223    1.395572    0.096428
C       0.017981    0.015779    0.093934
C      -1.357512   -0.717219   -0.015090
C      -0.650703   -2.081236   -0.040266
O       0.253806   -1.902075   -1.216627
C       0.668626   -0.623392   -1.149614
O       1.383684   -0.064628   -1.936118
C       0.212622   -2.002453    1.210510
C       0.628812   -0.736484    1.280670
H       0.633428    1.640197   -0.664923
H      -1.984966   -0.560088    0.862249
H      -1.904943   -0.498568   -0.936095
H      -1.225415   -2.983287   -0.227375
H       0.486658   -2.843356    1.831612
H       1.324150   -0.274306    1.968100
