12

C       0.132621    1.452075    0.079750
C      -0.054104   -0.015100   -0.022234
C      -1.113599   -0.835886   -0.268086
N      -0.701023   -2.152145   -0.245227
C       0.570221   -2.079589    0.009140
O       1.039450   -0.811432    0.158308
C       1.496226   -3.144789    0.144701
N       2.256391   -4.009764    0.256414
H       0.850737    1.813131   -0.664000
H      -0.821155    1.956635   -0.086632
H       0.507903    1.736444    1.068450
H      -2.140290   -0.567017   -0.458905
