18

C       0.267737    1.501151   -0.071229
C       0.043747   -0.006457    0.058053
C      -1.449851   -0.401815    0.065032
O      -2.134868    0.120377   -1.085418
C      -1.594728   -1.859425    0.108156
C      -1.705174   -3.056274    0.088187
C      -2.137622    0.187016    1.336292
N      -3.376266    0.681605    1.112395
O      -1.583969    0.158849    2.416070
H       1.337147    1.720146   -0.139504
H      -0.221074    1.895219   -0.965972
H      -0.125513    2.032255    0.800445
H       0.522371   -0.539106   -0.771571
H       0.480854   -0.382660    0.986176
H      -2.011786   -0.506065   -1.806049
H      -1.807829   -4.113614    0.093054
H      -3.719239    0.754219    0.169924
H      -3.868757    1.111500    1.877167
