22

C       0.683386    1.056699   -0.988198
C       1.400954   -0.254991   -0.634859
C       2.886386   -0.191493   -1.020929
C       1.229464   -0.569167    0.843223
C      -0.014833   -1.234976    1.375164
C       1.308093   -1.960149    1.436679
C       1.536770   -3.199987    0.613324
O       0.970917   -4.299889    1.318332
H       1.115535    1.898618   -0.434085
H       0.773323    1.281874   -2.056168
H      -0.380873    1.005657   -0.738647
H       0.930788   -1.056295   -1.219365
H       3.401045    0.595642   -0.457042
H       3.395646   -1.136855   -0.809484
H       3.010438    0.030018   -2.086365
H       1.648448    0.206647    1.482862
H      -0.459807   -0.875869    2.296476
H      -0.736046   -1.595803    0.647232
H       1.768763   -2.024558    2.418937
H       1.075505   -3.093430   -0.380223
H       2.617112   -3.353338    0.456376
H       1.184865   -5.103346    0.834629
