19

C       0.037260    1.359490    0.237458
C      -0.182249   -0.084375   -0.199615
N       0.905486   -0.521863   -1.080350
C       0.926318   -1.839125   -1.507956
C       1.246855   -2.425796   -2.698103
C       1.204780   -3.841498   -2.459071
C       0.844058   -4.024935   -1.166553
N       0.612898   -5.171304   -0.407719
O       0.671243   -2.778177   -0.563582
H       0.996820    1.467268    0.751032
H       0.034998    2.039348   -0.622720
H      -0.760140    1.680908    0.913506
H      -0.185511   -0.745371    0.670834
H      -1.167878   -0.188647   -0.683180
H       1.047478    0.109339   -1.858224
H       1.486514   -1.919416   -3.619559
H       1.409195   -4.631950   -3.163833
H       1.140720   -5.170141    0.459616
H      -0.367693   -5.294669   -0.172008
