27

C      -1.195801    1.108403    0.323728
C      -0.642990   -0.317601    0.258754
C       0.005689   -0.772849    1.573769
C       0.539978   -2.189725    1.502661
C       1.914555   -2.474697    0.939262
C       1.632809   -2.726814    2.401357
C       2.309309   -1.915971    3.494607
C       1.470464   -1.916310    4.781454
C       3.726414   -2.445945    3.761023
H      -0.403469    1.830507    0.551482
H      -1.652275    1.404983   -0.625888
H      -1.959892    1.202597    1.103676
H      -1.451026   -1.013297   -0.003730
H       0.095465   -0.393815   -0.549338
H       0.812307   -0.075725    1.831628
H      -0.734021   -0.694127    2.383151
H      -0.224987   -2.918223    1.239874
H       2.053260   -3.317703    0.270884
H       2.533705   -1.614636    0.697499
H       1.514675   -3.775066    2.674011
H       2.403159   -0.877539    3.151403
H       0.472157   -1.503618    4.607431
H       1.346462   -2.936474    5.164661
H       1.950582   -1.324270    5.568077
H       4.336887   -2.420150    2.853052
H       4.233264   -1.852849    4.529756
H       3.694886   -3.484905    4.111004
