23

C       0.104330    1.443263   -0.391975
C       0.118187   -0.050999   -0.040868
C       0.580039   -0.274705    1.406306
C      -1.264653   -0.670157   -0.257942
O       0.974457   -0.807126   -0.937344
C       2.262751   -0.309300   -1.169058
C       3.050811   -1.053157   -2.217661
C       2.479464    0.315873   -2.525631
O       1.375159    0.428639   -3.370323
H       1.065232    1.918175   -0.175539
H      -0.113796    1.592384   -1.452682
H      -0.661389    1.956129    0.197934
H      -0.104188    0.215640    2.105765
H       0.604515   -1.343587    1.635726
H       1.577934    0.138279    1.581278
H      -1.609753   -0.496824   -1.281675
H      -1.226405   -1.749565   -0.087670
H      -1.995342   -0.234240    0.429248
H       2.788301    0.071017   -0.296945
H       4.119731   -1.169117   -2.073795
H       2.554650   -1.898342   -2.683512
H       3.152620    1.160075   -2.635019
H       0.681261   -0.107076   -2.960633
