21

C      -0.627357    0.981272   -0.068109
C      -0.036006   -0.398238    0.165171
C       1.255252   -0.794952   -0.637916
C       1.805567   -1.479294    0.658940
C       0.749579   -0.705174    1.453544
C       1.044928    0.270365    2.557876
C       0.230927   -0.976720    2.829636
C       1.107462   -1.586380   -1.840324
C       0.963944   -2.258171   -2.828260
H       0.127158    1.764406    0.062125
H      -1.029140    1.063895   -1.083575
H      -1.447833    1.186637    0.629048
H      -0.800004   -1.167676    0.005621
H       1.836571    0.108925   -0.851901
H       1.622604   -2.557498    0.648993
H       2.856899   -1.297028    0.894864
H       2.059107    0.314231    2.942791
H       0.527649    1.224474    2.560685
H      -0.833625   -0.858115    3.008609
H       0.690623   -1.775900    3.402894
H       0.844081   -2.847962   -3.702769
