23

C      -0.605691    1.482323    0.730328
C      -0.041799    0.195206    0.115287
C       0.878749   -0.547178    1.064606
C       0.302137   -1.448386    2.136430
C       1.135364   -2.045572    1.016651
C       0.531370   -2.969498   -0.008911
O       2.437876   -2.464238    1.329095
O       1.988407    0.193150    1.536081
C       2.901086    0.586899    0.517183
H       0.198112    2.166751    1.015515
H      -1.261916    1.999804    0.024235
H      -1.184258    1.262097    1.633274
H      -0.864048   -0.470347   -0.164741
H       0.484464    0.426656   -0.819330
H       0.761049   -1.396851    3.118325
H      -0.771750   -1.607314    2.141829
H      -0.499445   -2.696633   -0.243725
H       1.116510   -2.957430   -0.934121
H       0.531271   -3.994930    0.375296
H       2.843726   -1.738761    1.820834
H       3.212657   -0.267913   -0.095742
H       2.477758    1.360345   -0.136126
H       3.774024    1.003705    1.025622
