15

O       0.154906    1.321678   -0.021464
C       0.145643   -0.081737   -0.010659
C      -1.289519   -0.560268    0.035641
O      -2.247590    0.177647    0.058086
C      -1.493313   -2.066326    0.053741
N      -0.488759   -2.844046    0.029689
N      -2.851106   -2.387959    0.097203
C      -3.385143   -3.649903    0.123209
O      -2.744492   -4.677722    0.111982
H       1.071918    1.608903   -0.051404
H       0.615299   -0.531612   -0.899491
H       0.667706   -0.518494    0.855153
H      -0.787108   -3.821550    0.046446
H      -3.462690   -1.579090    0.109263
H      -4.489966   -3.628326    0.156322
