17

C      -0.163868    1.529030    0.031098
C      -0.138021   -0.000417   -0.010694
N      -1.460894   -0.591952    0.009157
N      -2.120990   -0.815609    1.152884
C      -3.343604   -1.166634    0.762153
N      -4.386125   -1.457248    1.637044
C      -3.373132   -1.122057   -0.646881
O      -4.429493   -1.438833   -1.428648
N      -2.187360   -0.749173   -1.102618
H       0.857265    1.922841    0.018432
H      -0.699621    1.928881   -0.834196
H      -0.659427    1.879677    0.940415
H       0.352297   -0.357551   -0.919719
H       0.396089   -0.404284    0.852876
H      -4.051458   -1.725784    2.553050
H      -5.022969   -2.151289    1.268740
H      -4.154631   -1.333836   -2.347188
