21

C       0.037699    1.517961   -0.143058
C       1.350943    0.800247    0.010305
C       1.937607    0.637634    1.432327
C       0.816894   -0.082627    2.173901
C       0.565489   -1.267140    3.160308
C      -0.822427   -0.958460    2.484958
C      -0.517080    0.531484    2.744665
C      -0.010806   -0.859976    1.137625
C       0.028609    0.003322   -0.110869
H      -0.338241    2.123708    0.669031
H      -0.164495    1.948642   -1.119301
H       2.052397    0.837226   -0.816567
H       2.839198    0.015697    1.387559
H       2.219969    1.595576    1.882190
H       1.039180   -2.220301    2.908274
H       0.630854   -1.053972    4.230758
H      -1.760273   -1.482124    2.675504
H      -0.482308    0.841830    3.793479
H      -1.071967    1.250261    2.148795
H       0.421818   -1.830563    0.861212
H      -0.202925   -0.481263   -1.053889
