18

C      -0.012024    1.576664   -0.208760
C       1.320667    2.232186    0.214575
N       2.316470    1.304403    0.746644
C       2.479956   -0.037006    0.201147
C       1.937332    0.172801    1.582978
C       0.554733   -0.493165    1.384408
O       0.919127   -1.720409    0.657182
C       1.259601   -0.765662   -0.410665
C       0.043695    0.079864    0.040161
H      -0.854378    2.004286    0.346821
H      -0.220572    1.759271   -1.269063
H       1.790807    2.743957   -0.631347
H       1.155601    2.990335    0.986899
H       3.488580   -0.368453   -0.021844
H       2.499416    0.014058    2.497179
H      -0.078008   -0.664260    2.254858
H       1.355946   -1.218625   -1.397001
H      -0.876308   -0.432581   -0.243309
