18

C      -0.158060    1.402844   -0.242253
O      -0.148723    0.003749   -0.408415
C      -1.166658   -0.636739    0.342140
C      -1.105369   -2.110682    0.110045
C      -0.932762   -2.814874   -1.064844
C      -0.737602   -2.394583   -2.482631
N      -0.979324   -4.106270   -0.651225
N      -1.167129   -4.210456    0.679572
N      -1.240304   -2.996528    1.139530
H       0.651635    1.809546   -0.852585
H      -1.111117    1.848262   -0.569675
H       0.009361    1.687718    0.807913
H      -1.045752   -0.448650    1.419459
H      -2.151224   -0.229003    0.051996
H       0.096594   -2.929070   -2.949895
H      -1.632015   -2.580392   -3.088811
H      -0.514305   -1.327712   -2.509198
H      -0.874276   -4.945752   -1.199253
