17

C       0.145472    1.463649   -0.077692
C      -0.067086   -0.041179    0.045465
C      -1.542402   -0.435471    0.075393
O       0.540338   -0.669516   -1.125497
C       1.358642   -1.707591   -0.805974
O       1.809483   -2.462967   -1.616340
C       1.555431   -1.709017    0.690045
O       2.092896   -0.450095    1.140416
C       0.687618   -0.656735    1.220313
H       1.213262    1.690218   -0.078802
H      -0.297664    1.831950   -1.006396
H      -0.326159    1.983646    0.761734
H      -2.033414   -0.116756   -0.847351
H      -1.657123   -1.519588    0.168537
H      -2.048646    0.041459    0.920536
H       1.885199   -2.602125    1.207276
H       0.250047   -0.675996    2.214260
