16

C      -0.214752    1.536499    0.035075
C      -0.144216    0.039250   -0.003479
C      -0.031494   -0.611866   -1.192308
C       0.053386   -2.011490   -1.503683
N       0.049712   -3.074084   -0.761415
C      -0.046121   -3.056517    0.602975
C      -0.155157   -2.043320    1.502298
C      -0.209660   -0.592958    1.341888
O      -0.311332    0.126318    2.331047
H       0.597064    1.933376    0.653802
H      -0.165086    1.974351   -0.963462
H      -1.136711    1.854779    0.533132
H       0.002051    0.018523   -2.079051
H       0.137045   -2.215626   -2.573609
H      -0.029706   -4.060841    1.023920
H      -0.215240   -2.331359    2.548890
