24

C       0.030427    1.582060    0.086985
C      -0.060087    0.057380   -0.019252
C       0.718907   -0.513203   -1.209316
C       0.631176   -2.039693   -1.324389
C       1.413450   -2.608512   -2.500416
C       2.970745   -2.571175   -2.474058
C       2.978501   -3.979892   -3.126007
C       1.502577   -4.151502   -2.676522
H       1.069516    1.909846    0.204022
H      -0.367344    2.065866   -0.812227
H      -0.535473    1.958892    0.944904
H       0.312752   -0.397490    0.908227
H      -1.113429   -0.242930   -0.099770
H       0.346709   -0.057605   -2.137957
H       1.773090   -0.213730   -1.128869
H       0.999204   -2.497219   -0.394597
H      -0.423499   -2.337777   -1.412238
H       1.055165   -2.154727   -3.433393
H       3.476753   -1.758873   -3.001893
H       3.347295   -2.602657   -1.445491
H       3.066011   -3.921445   -4.214885
H       3.709327   -4.705252   -2.760491
H       1.433447   -4.662708   -1.710179
H       0.805031   -4.628672   -3.369920
