19

C      -0.390847    1.547492   -0.050979
C       0.473873    0.306647    0.152452
N       1.142111   -0.058434   -1.094376
C       2.023420   -0.956268   -1.064610
C       2.811952   -1.478669   -2.246939
C       4.027775   -2.136982   -1.579724
C       3.438614   -2.577822   -0.232903
O       2.418720   -1.615102    0.074042
H       0.221654    2.397247   -0.367919
H      -1.141417    1.370540   -0.827198
H      -0.906751    1.820538    0.875418
H       1.209103    0.481316    0.950989
H      -0.149629   -0.530777    0.498108
H       2.206907   -2.219634   -2.783290
H       3.050480   -0.677805   -2.946646
H       4.445990   -2.971534   -2.145848
H       4.821842   -1.400998   -1.420088
H       2.979651   -3.573121   -0.296456
H       4.158786   -2.579153    0.588761
