21

C       0.285841    1.513506   -0.381270
C      -0.019162    0.079947    0.030140
O      -1.412380   -0.158380    0.046237
C       0.862866   -0.981075   -0.676152
O       1.646837   -1.173996    0.520472
C       0.676297   -0.431583    1.331646
C       1.364361    0.551286    2.261603
C      -0.144405   -1.465656    2.120231
O       0.729717   -2.283036    2.878220
H       1.360649    1.708289   -0.400626
H      -0.097739    1.699500   -1.392945
H      -0.186905    2.225729    0.301435
H      -1.815474    0.325980   -0.681019
H       0.302082   -1.879317   -0.962549
H       1.481539   -0.647354   -1.516967
H       2.117325    1.143361    1.737708
H       0.629041    1.228650    2.709007
H       1.851710   -0.001076    3.069145
H      -0.819538   -0.968992    2.823472
H      -0.758739   -2.062036    1.434512
H       1.395405   -2.590582    2.248547
