22

C      -0.103293    1.543184   -0.063488
C      -0.002691    0.031070    0.011103
C      -1.233621   -0.686273   -0.512701
C       1.341881   -0.619367   -0.233079
C       0.741861   -0.627871    1.157607
C       1.370684    0.128691    2.285420
C       0.724079    0.136406    3.650339
C       2.011661   -0.619029    3.430388
H       0.808901    2.038875    0.277723
H      -0.284693    1.865190   -1.095880
H      -0.933440    1.915797    0.548503
H      -1.419309   -0.435961   -1.564458
H      -1.123684   -1.773351   -0.444863
H      -2.128042   -0.405120    0.056417
H       1.379746   -1.549419   -0.791465
H       2.194943    0.031328   -0.402283
H       0.322221   -1.581575    1.473993
H       1.870361    1.048908    1.998057
H       0.753477    1.050174    4.233839
H      -0.185592   -0.441381    3.778712
H       1.967275   -1.703269    3.412218
H       2.923836   -0.221367    3.861707
