14

C      -0.019001    1.536138    0.010433
C       0.002250   -0.024359    0.001951
C       0.716543   -0.508464    1.198738
C       1.303000   -0.867412    2.182350
C      -1.383610   -0.530494    0.012384
C      -2.523013   -0.907257    0.021285
C       0.693664   -0.495537   -1.213305
C       1.261275   -0.843739   -2.211725
H       1.005260    1.913513    0.002006
H      -0.547630    1.897055   -0.873806
H      -0.529474    1.887668    0.909005
H       1.819594   -1.201615    3.048104
H      -3.525927   -1.256828    0.028983
H       1.761242   -1.168327   -3.090797
