23

C      -0.283275    1.363924   -0.132029
O      -0.231162   -0.041437   -0.142263
C       0.793402   -0.543336   -0.974865
C       0.768200   -2.063843   -0.936969
C       0.624489   -2.617246    0.467853
O      -0.038721   -2.689777   -1.951890
C       1.388527   -2.842458   -2.040022
C       2.051066   -2.172557   -3.232597
C       1.909006   -4.251536   -1.817982
H       0.656959    1.805577    0.236327
H      -0.482222    1.773137   -1.135293
H      -1.096705    1.656613    0.536173
H       0.648128   -0.183944   -2.001244
H       1.777587   -0.180409   -0.625665
H      -0.263451   -2.189547    0.937156
H       0.531084   -3.702139    0.470944
H       1.490303   -2.337831    1.079021
H       1.634965   -1.190125   -3.452738
H       3.128353   -2.065161   -3.063958
H       1.918285   -2.797120   -4.122816
H       1.810432   -4.828347   -2.744203
H       2.971485   -4.234136   -1.550980
H       1.362619   -4.780688   -1.038398
