17

N       0.127031    1.341163    0.080361
C      -0.054061   -0.011352   -0.006252
N      -1.125695   -0.661030    0.219293
C      -0.822431   -2.051548   -0.111844
C       0.674847   -2.066782   -0.514589
C       1.663775   -3.028043    0.176280
O       1.961155   -3.685313   -1.071311
C       1.130944   -2.766713   -1.809823
O       1.054878   -0.684314   -0.435407
H       1.072038    1.640956    0.263287
H      -0.581899    1.815990    0.617015
H      -1.015024   -2.707974    0.745716
H      -1.459320   -2.405264   -0.933167
H       2.538690   -2.525938    0.607156
H       1.230433   -3.714972    0.913905
H       0.346197   -3.281849   -2.377697
H       1.709712   -2.120245   -2.480399
