19

C       0.152692    1.341841    0.078968
O       0.009169   -0.051506    0.247769
C      -1.277258   -0.529389   -0.104576
C      -1.191577   -2.036065   -0.045543
O      -0.180100   -2.543199   -0.863931
C      -1.519024   -2.781200    1.206229
C      -2.430600   -2.915214   -0.019980
C      -3.797657   -2.349747    0.022791
O      -4.736358   -2.785706   -0.596664
H       1.174801    1.600617    0.364131
H      -0.016355    1.643636   -0.965776
H      -0.547761    1.900186    0.718000
H      -2.041536   -0.135269    0.581510
H      -1.535470   -0.208203   -1.126394
H       0.598254   -2.002676   -0.674290
H      -0.913288   -3.644999    1.450606
H      -1.912272   -2.228969    2.054272
H      -2.337414   -3.822239   -0.606817
H      -3.921235   -1.473744    0.702704
