19

O      -0.173805   -0.054935   -0.155441
C       0.000136    1.130318   -0.038251
C       1.339700    1.825985   -0.170375
C       1.329631    2.912356   -1.232451
C       0.423795    4.193749   -1.173436
C       1.437037    4.655847   -2.247596
C       2.523322    3.903319   -1.443107
O       1.173580    3.779367   -3.354437
C       1.084924    2.498744   -2.695480
H      -0.851893    1.813782    0.185194
H       1.570947    2.281729    0.803032
H       2.102683    1.069375   -0.381469
H      -0.621971    4.111255   -1.479344
H       0.515769    4.729601   -0.226540
H       1.532488    5.680249   -2.602087
H       2.814207    4.409153   -0.520398
H       3.399415    3.549025   -1.991818
H       1.850723    1.815515   -3.082180
H       0.096741    2.053265   -2.863619
