23

C      -0.034555    1.575034   -0.132990
C       0.017345    0.088142   -0.008634
C       0.028742   -1.018953   -1.039264
C       1.305329   -1.619529   -0.454841
C       0.904395   -0.909062    0.863025
C      -0.424786   -1.594127    1.339790
C      -0.458156   -3.113794    1.506079
C      -0.954317   -0.914945    2.606796
C      -1.039037   -0.983989    0.073850
H       0.927018    1.988474   -0.460484
H      -0.789083    1.872938   -0.869893
H      -0.294083    2.057337    0.816950
H      -0.260142   -0.944217   -2.081012
H       1.446972   -2.705246   -0.440666
H       2.188880   -1.151357   -0.899503
H       1.657042   -0.625274    1.598909
H       0.223701   -3.439578    2.300988
H      -1.465765   -3.443774    1.785236
H      -0.186445   -3.640641    0.588761
H      -0.910426    0.175551    2.528447
H      -1.996663   -1.194983    2.798675
H      -0.366779   -1.214286    3.482820
H      -2.091315   -0.891976   -0.173591
