15

O      -0.022071   -0.001121    0.189696
C       0.024184    1.205040    0.087929
C       1.262380    1.972203   -0.061827
C       1.357051    3.319067   -0.085452
C       2.819255    3.674576   -0.036427
O       3.237189    3.276020    1.336946
C       3.683218    2.044801    0.814949
C       3.577572    2.439594   -0.613995
C       2.617841    1.376750   -0.124260
H      -0.902212    1.820713    0.087340
H       0.544707    4.024607    0.036084
H       3.134244    4.691846   -0.258849
H       4.389511    1.470166    1.400411
H       4.248008    2.378495   -1.460866
H       2.767585    0.334074   -0.369874
