16

C      -0.037542    1.580746    0.037923
C       0.019191    0.084879   -0.007152
C      -0.902199   -0.846407    0.778112
C       0.578614   -0.962978    0.964570
O       1.113725   -1.740982   -0.152572
C       0.701879   -0.750759   -1.044040
N       0.914875   -0.623084   -2.271011
C       1.329016   -0.856869    2.159038
C       1.958847   -0.761092    3.179284
H       0.928699    2.017583   -0.228989
H      -0.784683    1.958155   -0.667653
H      -0.310225    1.928973    1.038344
H      -1.441158   -0.359102    1.584730
H      -1.427455   -1.659513    0.286731
H       1.467739   -1.399665   -2.637696
H       2.519075   -0.680405    4.078074
