16

C      -0.019832    1.527876   -0.013619
C       1.403285    2.092135    0.024038
O       2.105961    1.748636    1.229635
C       1.961402    0.447178    1.570378
C       2.643284   -0.299406    2.477405
O       2.117060   -1.543079    2.508585
N       1.066913   -1.628556    1.602152
C       0.979424   -0.443504    1.049387
C      -0.007415   -0.014684    0.008133
H      -0.573475    1.911185    0.851048
H      -0.522762    1.896899   -0.912754
H       1.979550    1.728598   -0.839627
H       1.398322    3.183670   -0.001036
H       3.464842   -0.103142    3.145415
H      -1.000563   -0.421354    0.217641
H       0.293296   -0.401710   -0.973312
