16

O      -0.132225    0.731968   -1.065712
C       0.014089    1.309803   -0.010448
N       1.176696    1.368884    0.696554
C       2.416760    0.786399    0.222416
C       3.461915    1.868137   -0.023706
O       3.781329    2.611367    1.183699
C       5.181151    2.257608    1.158081
C       4.934384    1.429845   -0.109611
O       5.581714    0.736560   -0.829700
H      -0.803366    1.852911    0.502522
H       1.212153    1.926148    1.535915
H       2.797674    0.062380    0.952453
H       2.193794    0.258403   -0.707632
H       3.141020    2.538010   -0.832263
H       5.839672    3.125253    1.026794
H       5.498829    1.689603    2.041202
