15

O      -0.045215   -0.023284    0.026535
C       0.042412    1.170113    0.018640
O      -1.071307    1.994498    0.063553
C      -0.686006    3.375396    0.042248
C       0.804596    3.330869   -0.021534
C       1.210625    2.065619   -0.034574
C       2.700362    1.989021   -0.098166
O       3.106224    3.370195   -0.120405
C       1.978736    4.251862   -0.075037
H      -1.145557    3.860163   -0.827875
H      -1.069504    3.866300    0.945158
H       3.143763    1.486917    0.772285
H       3.067820    1.480722   -0.999831
H       1.972723    4.900702   -0.964080
H       2.048660    4.906725    0.806835
