16

C      -0.033018    1.505692    0.019052
C      -0.009135    0.007675   -0.023065
N      -0.036223   -0.610773   -1.162329
C      -0.014750   -1.983333   -1.218100
C       0.035270   -2.722459   -0.080091
O       0.061818   -4.069038    0.031831
N       0.064348   -2.091840    1.127784
C       0.045561   -0.697512    1.272656
N       0.071756   -0.065571    2.388547
H       0.853140    1.892190    0.533893
H      -0.074975    1.899089   -0.997178
H      -0.893614    1.862626    0.594902
H      -0.039101   -2.448749   -2.196561
H       0.039055   -4.455190   -0.850596
H       0.101462   -2.668281    1.956689
H       0.108893   -0.699716    3.188520
