17

C      -0.161999    1.437060    0.015933
C       0.061293   -0.069055    0.062983
C       0.871748   -0.621742   -1.117665
C       2.164981   -0.536552   -0.365828
C       1.276486   -0.518600    0.937483
C       1.272746   -2.061869    0.809689
O       1.275156   -2.967413    1.593821
C       1.561970   -1.927695   -0.659157
O       2.061654   -2.847541   -1.542439
H       0.773073    1.968773   -0.189274
H      -0.880278    1.702295   -0.767730
H      -0.557974    1.801013    0.969715
H      -0.880394   -0.587146    0.286933
H       0.714422   -0.477554   -2.181116
H       3.162503   -0.196058   -0.594855
H       1.518396   -0.042991    1.884199
H       1.326628   -3.296546   -1.974583
