19

O      -0.186401    1.171560   -0.865077
C      -0.048194   -0.139507   -0.349726
C      -1.387996   -0.642803    0.160855
O      -2.378912   -0.628616   -0.906735
C      -2.571174   -2.070871   -0.818199
C      -2.214082   -2.740525   -2.135678
O      -3.027628   -2.218153   -3.170550
C      -1.577394   -2.171086    0.357400
O      -0.479249   -3.012701    0.085439
H      -0.915625    1.132816   -1.495787
H       0.350371   -0.835119   -1.100920
H       0.674167   -0.085856    0.472924
H      -1.729586   -0.018582    0.995695
H      -3.613964   -2.293373   -0.563619
H      -1.145142   -2.608501   -2.350138
H      -2.412872   -3.815350   -2.078140
H      -2.926113   -1.259549   -3.131926
H      -2.050448   -2.433436    1.309904
H       0.030402   -3.127689    0.892753
