14

O      -0.115621    0.333268    0.706368
C       0.047903    1.282356   -0.030658
N       1.230114    1.638197   -0.602053
C       2.472904    0.924576   -0.364500
C       3.519391    1.832897    0.232430
C       4.928377    1.755977   -0.166168
O       4.084584    2.793782   -0.669248
H      -0.770248    1.969702   -0.322593
H       1.262278    2.463034   -1.180724
H       2.234380    0.103979    0.317102
H       2.852603    0.499157   -1.301445
H       3.277992    2.238028    1.215707
H       5.702771    2.076688    0.528373
H       5.240645    1.011949   -0.897939
