21

C       1.062987    2.085698    3.112350
C       0.519038    0.727674    2.679577
C      -0.165223    0.523861    1.283034
C       0.722712   -0.706165    1.040279
C       2.180572   -0.351397    1.040145
C       2.784693    0.880544    0.369639
C       4.030676    1.318614    0.990783
C       5.055731    1.663144    1.516093
C       1.468004   -0.440541    2.363404
H       1.812559    2.484920    2.425121
H       0.252324    2.819135    3.192623
H       1.538159    2.010814    4.096846
H      -0.187141    0.384666    3.443517
H      -1.226268    0.280120    1.367481
H      -0.065923    1.341493    0.560855
H       0.367502   -1.648531    0.639788
H       2.809605   -1.227603    0.893035
H       2.972325    0.640766   -0.685751
H       2.073235    1.711585    0.359712
H       5.961366    1.974065    1.974514
H       1.801236   -1.160221    3.103345
