16

C      -0.043449    1.590677   -0.093876
C       0.014503    0.103298    0.001837
C       0.074518   -1.024899   -0.966986
O       1.206382   -1.675988   -0.379275
C       0.888750   -0.928824    0.824157
C      -0.430672   -1.586533    1.327433
O      -0.966999   -0.955639    2.473010
C      -1.055780   -0.992939    0.077105
H       0.924952    2.013023   -0.384703
H      -0.780842    1.898490   -0.843107
H      -0.337842    2.034968    0.862834
H      -0.075580   -1.087276   -2.037212
H       1.741276   -0.739971    1.476140
H      -0.407972   -2.680425    1.432138
H      -0.469237   -1.264809    3.237173
H      -2.104843   -0.934032   -0.184150
