15

C       0.183210    1.369786   -0.109779
O      -0.178889    0.017613    0.161598
C       0.595374   -0.627219    1.041433
N       0.333991   -1.835403    1.332458
C       1.098128   -2.525724    2.222288
C       1.014364   -3.804109    2.682988
N       2.036110   -4.043429    3.590936
C       2.682358   -2.926276    3.642385
O       2.190709   -1.944892    2.848198
H       1.189806    1.432995   -0.538779
H      -0.541306    1.738708   -0.835731
H       0.132521    1.984105    0.796483
H       1.424634   -0.045329    1.458102
H       0.288477   -4.554660    2.417464
H       3.552887   -2.681906    4.231188
