15

C      -0.020901    1.501817    0.036474
C       0.005957    0.010564   -0.011594
C       0.292815   -0.990932   -1.180633
C      -0.631190   -2.012511   -0.534624
C       0.849495   -1.997163   -0.184469
C       0.566195   -1.003048    0.980140
C      -0.919043   -1.018472    0.628932
H       0.949971    1.931567   -0.238405
H      -0.774127    1.913655   -0.646077
H      -0.263381    1.850862    1.046618
H       0.538129   -0.843822   -2.224431
H      -1.223209   -2.792483   -0.994306
H       1.599880   -2.763221   -0.326695
H       1.045348   -0.836015    1.936163
H      -1.778787   -0.865344    1.268353
