21

C      -0.010477    1.497775   -0.267947
C       0.051646   -0.010516   -0.052125
O       0.915608   -0.373853    1.025376
C      -1.331897   -0.611396    0.186968
O      -2.231660   -0.391240   -0.927171
C      -2.452809   -1.811017   -1.104059
C      -1.495855   -2.123277    0.040636
C      -0.449549   -3.191711    0.133486
C      -1.609092   -3.166456    1.105492
H       0.987565    1.899103   -0.463652
H      -0.663569    1.731747   -1.112966
H      -0.416547    2.000633    0.619488
H       0.486031   -0.490482   -0.936141
H       0.637616    0.123097    1.803167
H      -1.751116   -0.195987    1.119373
H      -3.503722   -2.081952   -0.937252
H      -2.148066   -2.150142   -2.102599
H      -0.441425   -3.962232   -0.631352
H       0.526771   -2.901891    0.504016
H      -1.406937   -2.870984    2.130349
H      -2.385457   -3.918315    1.001791
