17

O       0.254948    1.447788    0.076511
C       0.077415    0.041804    0.045153
C       0.141213   -0.636118    1.462709
C      -1.438663   -0.622716    1.491994
C      -1.341340   -0.438426   -0.004367
C      -1.653310   -1.057127   -1.143822
C      -0.523709   -0.931365   -2.149344
C       0.678809   -0.502717   -1.268990
O       1.841769   -0.528798   -1.569780
H       1.206986    1.606540    0.043781
H       0.549273   -1.648627    1.439878
H       0.645810   -0.041460    2.227353
H      -1.956135   -1.510466    1.861742
H      -1.808142    0.259776    2.021423
H      -2.505192   -1.708380   -1.306199
H      -0.302627   -1.869953   -2.669908
H      -0.684306   -0.174920   -2.929044
