20

C      -0.082602    1.529107    0.033057
C       0.043387    0.019496    0.004111
C      -0.806373   -0.794512    0.964169
C       0.684375   -0.723602    1.163180
C       1.540920   -1.955195    0.872439
C       2.102608   -1.916941   -0.549073
N       1.035934   -1.627206   -1.504077
C       0.193425   -0.549036   -1.385083
O      -0.416103   -0.099541   -2.339436
H       0.841974    2.014077   -0.299233
H      -0.885744    1.848891   -0.635264
H      -0.303402    1.880844    1.045387
H      -1.454795   -0.242588    1.636604
H      -1.219720   -1.733419    0.609765
H       1.027964   -0.094636    1.978854
H       2.370980   -2.013917    1.583267
H       0.948410   -2.867967    0.998721
H       2.905046   -1.166094   -0.614760
H       2.543156   -2.882655   -0.814333
H       1.168509   -1.917760   -2.462775
