19

O      -0.046539    1.434040    0.148417
C      -0.024680    0.053097   -0.057097
C      -0.321057   -0.830110    1.118368
C      -1.329583   -0.701945   -0.009585
C      -2.587900    0.119920    0.188183
O      -2.734686    1.043575   -0.913946
C      -4.014464    0.901165   -1.524629
C      -4.670465   -0.233511   -0.788524
C      -3.871396   -0.665257    0.179323
H      -0.683616    1.798497   -0.479971
H       0.724374   -0.290687   -0.770128
H       0.223723   -1.761197    1.226247
H      -0.555379   -0.326793    2.050555
H      -1.436793   -1.541066   -0.690832
H      -2.483950    0.708596    1.111589
H      -4.583967    1.839999   -1.433140
H      -3.894508    0.698557   -2.599942
H      -5.655901   -0.606855   -1.036509
H      -4.067698   -1.464413    0.882326
