21

O       0.318881    1.232199   -0.248879
C       0.151673   -0.095251    0.184102
C      -0.200249   -0.355706    1.662367
O      -1.368851   -1.102487    1.281392
C      -1.240602   -0.700814   -0.119830
C      -2.375872    0.261454   -0.551920
C      -3.105607   -0.428057   -1.726696
C      -2.788200   -1.922179   -1.542455
C      -1.324797   -1.895760   -1.078969
H       1.232912    1.492196   -0.100230
H       0.964104   -0.738109   -0.180075
H       0.500596   -0.954568    2.256162
H      -0.449697    0.566349    2.205395
H      -3.040313    0.377517    0.309435
H      -1.990970    1.249275   -0.810972
H      -4.177578   -0.212950   -1.740190
H      -2.695513   -0.081456   -2.682980
H      -3.419418   -2.348810   -0.753679
H      -2.944995   -2.515105   -2.447968
H      -0.668525   -1.701618   -1.938356
H      -0.983076   -2.813347   -0.593640
