21

C       0.059442    1.554576    0.321773
C       0.106989    0.064396    0.031791
O       0.765251   -0.568462    1.127692
C       0.759201   -1.985639    1.170678
C       1.502168   -2.624959   -0.012630
C       1.455071   -2.341977    2.516777
N       0.854042   -1.782590    3.711313
C      -0.638723   -2.487631    1.219332
N      -1.723601   -2.882417    1.282474
H       1.069122    1.955649    0.447654
H      -0.422695    2.083215   -0.505687
H      -0.506538    1.751340    1.236415
H      -0.907962   -0.341636   -0.082315
H       0.652108   -0.126739   -0.902976
H       2.515844   -2.217052   -0.056156
H       1.561612   -3.708831    0.118179
H       1.001828   -2.429028   -0.963246
H       1.499456   -3.431867    2.607569
H       2.483421   -1.973321    2.428721
H       0.730411   -0.782914    3.581200
H      -0.071911   -2.175285    3.856489
