23

C       0.093966    1.543502   -0.002904
C       0.008650    0.014867   -0.018309
C      -1.432818   -0.502149    0.028004
C      -1.522660   -2.026724    0.012874
C      -2.943544   -2.568685    0.057738
O      -3.913883   -1.839198    0.101520
C      -3.083344   -4.055454    0.045024
C      -4.245424   -4.654454    0.824959
C      -4.299252   -4.636643   -0.663015
H       1.132543    1.887254   -0.036686
H      -0.429378    1.976594   -0.862463
H      -0.364880    1.955211    0.902777
H       0.506328   -0.370902   -0.918435
H       0.570240   -0.392123    0.833574
H      -1.937795   -0.122891    0.924058
H      -2.001393   -0.101860   -0.819481
H      -1.035382   -2.443067   -0.881536
H      -0.972381   -2.464078    0.859430
H      -2.162514   -4.626778    0.004901
H      -4.066790   -5.594151    1.334727
H      -4.866841   -3.941543    1.354568
H      -4.956654   -3.911743   -1.129101
H      -4.158826   -5.563704   -1.206741
