17

C       0.009199    1.528173   -0.101414
C      -0.021962    0.033157    0.072088
O       1.257999   -0.658661   -0.044720
C       0.605587   -0.657199    1.190272
C       1.159746   -0.211925    2.564524
C      -0.189260   -0.789768    3.125988
C       0.222265   -1.873880    2.065365
C       1.640321   -1.682479    2.656636
O       2.574550   -2.318669    3.023780
H       0.835276    1.969397    0.461324
H       0.132746    1.787718   -1.157752
H      -0.929855    1.972977    0.245342
H      -0.827991   -0.483597   -0.450997
H       1.664700    0.710671    2.837033
H      -0.190255   -1.102503    4.169960
H      -1.076776   -0.211787    2.864141
H      -0.308004   -2.779309    1.783319
