14

O      -0.105110    0.056636    0.365856
C      -0.079708    1.236904    0.173408
C      -1.311815    2.112204   -0.095134
N      -0.778471    3.455328   -0.071896
C       0.569351    3.585660    0.131871
O       1.174072    4.621966    0.243525
C       1.162510    2.153397    0.149856
C       2.123687    1.901370    1.202040
C       2.903268    1.683391    2.088120
H      -1.753966    1.839257   -1.062763
H      -2.064641    1.929720    0.681200
H      -1.352192    4.282653   -0.124674
H       1.636066    2.007061   -0.833756
H       3.599313    1.496626    2.868147
