17

O       0.223659    1.099671   -0.769842
C      -0.020018    0.091250    0.198552
C      -1.426999   -0.470881    0.155055
C      -2.038668   -0.952780    1.312516
C      -3.320265   -1.496826    1.247030
C      -4.006953   -1.558730    0.040950
C      -3.398574   -1.069836   -1.116917
O      -4.106503   -1.145747   -2.279511
C      -2.114457   -0.529238   -1.058654
H      -0.406573    1.810483   -0.610069
H       0.707039   -0.698926   -0.025471
H       0.201777    0.446363    1.216505
H      -1.516043   -0.900633    2.262498
H      -3.794520   -1.869959    2.149061
H      -5.006191   -1.973201   -0.024515
H      -3.570936   -0.787932   -2.995300
H      -1.636848   -0.143299   -1.955187
