13

N      -0.090289    1.320267   -0.024946
C       0.072144   -0.017551   -0.017962
O       1.110281   -0.636308   -0.044674
N      -1.177943   -0.709646    0.025843
C      -1.365708   -2.048376    0.042079
N      -2.650520   -2.329399    0.084176
C      -3.223177   -1.087206    0.091901
O      -4.544855   -0.911640    0.131433
N      -2.392053   -0.066797    0.058088
H       0.729972    1.899087   -0.052895
H      -1.016341    1.716017    0.001912
H      -0.541635   -2.743039    0.022171
H      -4.942600   -1.790983    0.151128
