18

C       0.021760    1.573947   -0.524040
C      -0.129155    0.131335   -0.037003
C      -1.542944   -0.425246   -0.259234
O      -1.774430   -0.468458   -1.653848
C      -3.104246   -0.715308   -2.056105
C      -4.021898    0.376295   -1.675528
N      -4.729176    1.231983   -1.354919
C      -1.685763   -1.788031    0.404889
O      -2.000268   -2.801347   -0.162941
H       1.046683    1.925595   -0.376305
H      -0.217535    1.648229   -1.587183
H      -0.648179    2.246903    0.021502
H       0.577261   -0.524111   -0.559545
H       0.102893    0.064320    1.032365
H      -2.266989    0.247969    0.236198
H      -3.084455   -0.794823   -3.146746
H      -3.484304   -1.660806   -1.654249
H      -1.471903   -1.774610    1.498637
