21

O      -0.062583    1.354575   -0.281575
C      -0.024036   -0.061879   -0.185304
C      -1.426489   -0.549540    0.165744
C      -2.414689   -0.286353   -0.988191
O      -2.340756   -1.449823   -1.806197
C      -2.289792   -2.536342   -0.912599
C      -3.514381   -3.409597   -0.796116
C      -2.265650   -3.896448   -1.518173
C      -1.473897   -2.095110    0.304085
H       0.785073    1.658543   -0.618017
H       0.286380   -0.521675   -1.137081
H       0.686460   -0.388392    0.590878
H      -1.745042   -0.042281    1.080685
H      -3.437465   -0.147480   -0.605709
H      -2.140415    0.579635   -1.593059
H      -3.757917   -3.847119    0.166940
H      -4.367559   -3.147116   -1.411660
H      -2.307308   -3.952637   -2.600283
H      -1.656544   -4.660566   -1.046337
H      -0.464625   -2.521875    0.281478
H      -1.940135   -2.411369    1.240141
