19

C      -0.052626    1.486250    0.245464
C       0.052825    0.000229    0.063078
C       0.545509   -0.691150   -1.232528
C      -0.392025   -1.769262   -0.657781
C       0.345940   -2.279852    0.598197
C       0.685602   -0.862217    1.191766
C       2.152136   -0.659833    1.465086
O       2.883215    0.073839    0.844685
O      -1.227459   -0.705170   -0.113593
H       0.949336    1.918738    0.309007
H      -0.584459    1.940600   -0.594643
H      -0.595713    1.725545    1.166166
H       0.120879   -0.216218   -2.117606
H       1.609775   -0.898344   -1.354696
H      -0.930020   -2.493104   -1.269401
H      -0.308243   -2.859338    1.251466
H       1.229044   -2.880274    0.359217
H       0.145643   -0.713818    2.134476
H       2.547922   -1.263263    2.314920
