15

O      -0.011697    1.326546   -0.098032
C       0.017968   -0.040449    0.035203
C       1.159358   -0.950906   -0.487596
C      -0.252452   -1.070725   -1.007137
N      -0.547933   -2.079018    0.094735
C       0.957164   -2.145136    0.449855
C       0.646622   -1.625903    1.867528
C      -0.533830   -0.948032    1.149836
H       0.725250    1.704970    0.394696
H       2.042918   -0.547612   -0.966448
H      -0.694651   -1.055191   -1.994885
H       1.492043   -3.078831    0.271827
H       0.309584   -2.434033    2.521843
H       1.385255   -1.002694    2.379291
H      -1.469640   -0.684873    1.643310
