18

C       0.071592    1.571958    0.135929
C       0.016472    0.050734   -0.084012
C      -1.384265   -0.509405   -0.051558
C      -2.015463   -0.952097   -1.174634
N      -3.288953   -1.436316   -1.129036
C      -4.087946   -1.542506    0.025651
O      -5.220177   -1.992790   -0.048187
C      -3.401616   -1.073847    1.215551
C      -2.130834   -0.589851    1.167190
H       1.105433    1.931088    0.127333
H      -0.481137    2.099748   -0.647565
H      -0.371841    1.850269    1.097453
H       0.481140   -0.194141   -1.045921
H       0.625734   -0.444453    0.683152
H      -1.546836   -0.945309   -2.152535
H      -3.738739   -1.762760   -1.973078
H      -3.957989   -1.136546    2.142668
H      -1.655115   -0.254462    2.085792
