13

O      -0.414369    0.660844    0.870764
C       0.091120    1.017463   -0.160103
C       1.413761    1.772724   -0.244964
C       1.352653    2.901438   -1.221753
C       1.366287    4.240378   -1.009533
O       1.265306    4.866653   -2.221241
C       1.187261    3.855905   -3.112528
N       1.232826    2.673734   -2.593378
H      -0.377203    0.809260   -1.146195
H       1.687052    2.111621    0.756725
H       2.170281    1.049708   -0.580938
H       1.441830    4.874231   -0.143200
H       1.099608    4.129635   -4.152158
