18

O       0.105447    1.356567    0.551227
C       0.069210    0.149557   -0.185636
C      -1.231860   -0.575511    0.069806
C      -1.481494   -2.058849   -0.048268
C      -0.448081   -3.083333   -0.461062
O      -0.679681   -4.327577    0.175840
N      -1.301886   -1.421786    1.248433
C      -2.235592   -1.271504    2.258001
O      -2.511533   -0.212070    2.766140
H      -0.166040    1.154775    1.455159
H       0.146148    0.428955   -1.241980
H       0.921953   -0.501035    0.055878
H      -2.104698    0.057901   -0.087133
H      -2.503291   -2.342219   -0.301797
H      -0.528896   -3.271063   -1.536691
H       0.563676   -2.708045   -0.258958
H      -0.537341   -4.195841    1.119666
H      -2.647727   -2.238944    2.603821
