13

O      -0.001008    1.387555   -0.035939
C       0.019934    0.000793    0.020953
C      -0.442974   -0.697435    1.281183
C      -1.347368   -0.686215    0.061841
C      -2.536287    0.110341    0.032794
C      -3.552359    0.750742   -0.000785
C       1.055016   -0.632271   -0.771243
N       1.897214   -1.127399   -1.390304
H       0.767721    1.724357    0.439330
H       0.023966   -1.634210    1.560548
H      -0.717978   -0.037838    2.095511
H      -1.398890   -1.617450   -0.493756
H      -4.443925    1.326618   -0.034252
