18

C      -0.044806    1.557037   -0.056841
O       1.316158    2.021316   -0.068151
C       2.128756    0.928794   -0.438785
C       2.604242   -0.079564    0.668682
C       1.618845   -0.064220    1.830773
O       0.307697   -0.390748    1.366402
C       0.044846    0.027776    0.038171
C       1.271177   -0.264973   -0.877054
N       2.191883   -1.236755   -0.207785
H      -0.563256    1.985616    0.804858
H      -0.556773    1.876167   -0.976867
H       2.925609    1.262238   -1.108046
H       3.643671   -0.063998    1.003697
H       1.878715   -0.829139    2.568364
H       1.630277    0.921688    2.317067
H      -0.875235   -0.475055   -0.267119
H       1.008080   -0.452436   -1.919770
H       2.952311   -1.425395   -0.858826
