16

C       0.000017    1.560799    0.135664
C       1.476143    1.873848   -0.032933
C       2.134933    0.836477   -0.570775
C       3.191311    0.108145    0.221085
O       2.293803   -0.690106    1.054093
C       1.120144   -0.953040    0.286368
C      -0.011307    0.055225   -0.133711
C       1.170082   -0.257514   -1.016019
H      -0.305836    1.829458    1.155375
H      -0.682707    2.090106   -0.544950
H       1.955686    2.666815    0.532536
H       3.843147   -0.557089   -0.357819
H       3.788510    0.742326    0.878495
H       0.788301   -1.979126    0.407793
H      -0.966732   -0.435010   -0.304854
H       1.180098   -0.694587   -2.008410
