15

O       0.044091    1.300306    0.319443
C      -0.014521   -0.098192    0.173367
C      -1.422500   -0.565521   -0.189264
C      -1.609350   -2.088012   -0.167075
O      -2.170686   -2.332664    1.125832
C      -2.653284   -1.165381    1.640461
N      -3.304168   -1.014594    2.703582
O      -2.332754   -0.122392    0.832862
H      -0.623476    1.540885    0.973177
H       0.675830   -0.367279   -0.634050
H       0.313845   -0.625619    1.085034
H      -1.740787   -0.104461   -1.127193
H      -2.302346   -2.438842   -0.938776
H      -0.668289   -2.638245   -0.249516
H      -3.473323   -1.916098    3.142958
