16

C      -0.665697    1.143993    0.188609
N       0.067518   -0.116619    0.089326
C       1.410592   -0.093864   -0.430251
C       1.177531   -0.411756    1.019918
C       1.645670    0.575463    2.049248
C       1.937372   -0.002881    3.420936
O       1.777277    1.758830    1.810344
H      -0.043060    2.009914    0.437863
H      -1.153724    1.315519   -0.775781
H      -1.446735    1.038765    0.948138
H       1.681063   -0.899571   -1.108399
H       1.871606    0.872402   -0.628467
H       1.195856   -1.451124    1.339304
H       2.684068   -0.802085    3.346319
H       2.299708    0.781145    4.086203
H       1.031617   -0.456712    3.839963
