16

O      -0.058881    0.001891    0.178268
C      -0.084809    1.193877    0.099224
C      -1.163863    2.272522    0.227788
C      -0.019192    3.283550    0.547598
C       1.046981    2.260742    0.039923
C       2.358433    1.970749    0.792252
O       3.391163    2.150351   -0.208751
C       2.729821    2.433806   -1.349375
N       1.463248    2.523944   -1.347654
H      -1.634405    2.470464   -0.740048
H      -1.941344    2.097647    0.974461
H      -0.036978    4.225039   -0.000648
H       0.079799    3.479327    1.618439
H       2.556483    2.656352    1.620260
H       2.403009    0.936850    1.147664
H       3.365275    2.578499   -2.215862
