15

O      -0.137534   -0.043654    0.083591
C      -0.068855    1.146875   -0.062662
C       1.241005    1.923236   -0.051810
N       2.401850    1.061760   -0.127252
C       3.248786    1.301179   -1.190118
O       4.254717    0.689699   -1.457949
C       2.661786    2.483569   -1.933896
N       1.345338    2.123527   -2.524680
C       1.402752    2.859201   -1.251609
H      -0.976068    1.779856   -0.179690
H       1.238831    2.522741    0.875105
H       2.379989    0.149094    0.302929
H       3.315573    3.180590   -2.442225
H       1.141952    2.773449   -3.281356
H       1.050635    3.881487   -1.188002
