17

C      -0.157810    1.475577    0.145394
N       0.026409    0.041592    0.171008
C      -0.993161   -0.676503   -0.009016
N      -0.995514   -2.070095   -0.008176
C      -2.213161   -2.826002   -0.260193
C      -1.745756   -4.247328    0.085537
O      -0.323221   -4.204105   -0.039583
C       0.125016   -2.910400    0.020606
O       1.279376   -2.620901    0.072244
H       0.471918    1.910416   -0.639052
H      -1.200636    1.791154   -0.029212
H       0.180250    1.903987    1.095798
H      -2.005191   -0.275635   -0.175274
H      -3.037311   -2.494514    0.377226
H      -2.528088   -2.740353   -1.308423
H      -2.005842   -4.520768    1.114392
H      -2.134935   -5.006087   -0.595224
