16

O       0.121645    0.111925    0.075176
C       0.024290    1.304025    0.025340
C      -1.223506    2.196452    0.058452
C      -0.478475    3.514493   -0.081873
N       0.627238    3.324365    1.000858
C       1.170143    2.331852   -0.098915
C       2.171754    1.848548   -1.178439
O       1.174557    2.332818   -2.178517
C       0.699895    3.263260   -1.122717
H      -1.900323    1.967435   -0.768796
H      -1.759716    2.110996    1.005648
H      -1.031739    4.452161   -0.048151
H       1.223708    4.154014    0.972156
H       3.107789    2.407291   -1.266126
H       2.321155    0.769572   -1.247749
H       1.281773    4.188190   -1.214147
