20

C       2.075879    0.100258    0.211416
C       1.848171   -1.376605   -0.046207
O       2.286187   -2.233403    0.694281
C       1.040708   -1.703048   -1.268755
C       1.239428   -3.046773   -1.912457
N      -0.006833   -2.750214   -1.251883
C      -0.330776   -3.436693   -0.026620
C      -1.632065   -3.057312    0.625074
C      -1.504309   -4.376211   -0.100117
H       2.559961    0.568241   -0.653688
H       1.115450    0.610447    0.349765
H       2.695534    0.232314    1.098665
H       0.782441   -0.852484   -1.894799
H       1.206027   -3.120933   -2.996545
H       1.943722   -3.706478   -1.409492
H       0.496779   -3.707102    0.622637
H      -1.679680   -3.057642    1.708133
H      -2.214875   -2.282602    0.140173
H      -2.001559   -4.464330   -1.058997
H      -1.460644   -5.290858    0.480311
