23

C      -0.021545    1.458008    0.055417
C      -0.001132   -0.050340   -0.021910
C       1.024209   -0.726390   -0.940671
C       0.343899   -2.051447   -1.368436
C      -0.762862   -2.268013   -0.321730
C      -1.763295   -3.359225   -0.647018
C      -0.125678   -2.299636    1.113569
C      -0.412525   -0.805394    1.236399
C      -1.287042   -0.831095   -0.008548
H       0.925341    1.848504    0.447010
H      -0.178382    1.903679   -0.933903
H      -0.821946    1.814281    0.712300
H       1.247257   -0.090504   -1.804029
H       1.975673   -0.899440   -0.424482
H      -0.107589   -1.945083   -2.362548
H       1.040709   -2.895915   -1.413462
H      -1.272096   -4.337314   -0.711556
H      -2.542172   -3.428715    0.119824
H      -2.255375   -3.171102   -1.608691
H      -0.739346   -2.882626    1.806688
H       0.914542   -2.638850    1.193391
H      -0.577685   -0.266465    2.163507
H      -2.278128   -0.431099   -0.186105
