17

O       0.473055    0.801904   -0.647737
C       0.190367   -0.289661    0.167314
C      -0.042471   -0.087449    1.702687
C      -1.264721   -1.053414    1.621419
C      -1.239187   -0.850366    0.106536
N      -2.213621   -0.081612   -0.656276
C      -1.986198   -1.508958   -0.999655
C      -1.369905   -1.782918   -2.275309
N      -0.871546   -2.039533   -3.286196
H      -0.380353    1.161296   -0.930389
H       0.940764   -1.066928   -0.015876
H       0.773049   -0.365778    2.371556
H      -0.347745    0.941077    1.909297
H      -1.017108   -2.079029    1.907611
H      -2.179529   -0.754950    2.140088
H      -3.096669    0.013839   -0.159603
H      -2.755982   -2.223995   -0.720203
