17

O      -0.450306    1.225117    0.119069
C      -0.001611   -0.095319   -0.020000
C       0.912000   -0.195332   -1.234298
O       1.173413    0.785553   -1.890759
C       0.730818   -0.577062    1.239070
C       1.734130    0.355335    1.914618
C       0.422024    0.106253    2.568690
C       1.020840   -2.024058    1.308906
O       0.770182   -2.817806    0.430966
H      -0.043894    1.710290   -0.618981
H      -0.846715   -0.781046   -0.195546
H       1.313870   -1.194744   -1.471562
H       2.630164   -0.085306    2.337727
H       1.875861    1.309610    1.420660
H      -0.324660    0.888097    2.518540
H       0.389070   -0.522413    3.452124
H       1.499348   -2.351386    2.260338
