20

C       0.577642   -0.224721   -0.454743
C      -0.147847   -0.341642    0.882326
O      -0.017377    0.833472    1.671776
C      -1.632414   -0.679625    0.718982
O      -1.754607   -1.942232    0.093474
C      -3.089189   -2.334143   -0.144746
C      -3.164233   -3.754864   -0.705560
N      -1.981637   -4.416909   -0.724528
O      -4.224765   -4.217090   -1.077138
H       1.639049   -0.016511   -0.296946
H       0.475893   -1.146755   -1.032682
H       0.151296    0.591210   -1.053258
H       0.312239   -1.138458    1.478555
H      -0.262122    1.586466    1.122474
H      -2.113186   -0.685288    1.708616
H      -2.127825    0.098280    0.111121
H      -3.681886   -2.312279    0.782909
H      -3.584042   -1.664578   -0.863181
H      -1.143288   -3.959991   -0.409998
H      -1.954380   -5.357145   -1.080745
