21

C      -0.160825    1.398319   -0.036995
O       0.067367    0.006788    0.009821
C       0.712070   -0.524255   -1.130629
C      -0.107110   -0.532420   -2.457113
C       0.279681   -2.026657   -2.637561
C       0.786248   -2.079656   -1.164123
C       2.253528   -2.482588   -0.944405
C       2.986044   -1.174220   -1.146678
C       2.167443   -0.127649   -1.257533
H       0.774118    1.977303   -0.029420
H      -0.740888    1.691086   -0.925053
H      -0.735235    1.658702    0.855581
H      -1.173220   -0.404232   -2.248918
H       0.190334    0.162577   -3.246392
H      -0.533689   -2.707938   -2.894835
H       1.090785   -2.168824   -3.356640
H       0.079420   -2.557735   -0.485007
H       2.442477   -2.890691    0.057629
H       2.576083   -3.252969   -1.656531
H       4.069386   -1.118483   -1.189879
H       2.486419    0.897845   -1.408879
