22

C       0.036653    1.490443    0.026438
C      -0.056466   -0.021197   -0.038756
C      -0.856494   -0.772892    0.974210
N       0.598894   -0.719778    1.073468
C       1.366758   -1.935001    0.800411
C       2.581785   -1.632151   -0.084493
C       2.260629   -1.520736   -1.579961
O       1.393459   -0.461269   -1.946463
C       0.072654   -0.592186   -1.442413
H       0.952054    1.832828   -0.466381
H      -0.816003    1.957478   -0.479935
H       0.056138    1.827506    1.065169
H      -1.409655   -0.238990    1.743577
H      -1.311541   -1.713946    0.664432
H       1.698058   -2.328262    1.768685
H       0.761669   -2.731426    0.333931
H       3.055802   -0.708593    0.266241
H       3.318492   -2.437605    0.029194
H       3.183575   -1.346207   -2.142490
H       1.837339   -2.479320   -1.928603
H      -0.248878   -1.642911   -1.481198
H      -0.572617   -0.025896   -2.123561
