17

C      -0.269696    1.509643    0.076949
C      -0.006289    0.011316   -0.013087
C       1.239054   -0.369532   -0.883184
C       2.015863   -0.570194    0.416793
O       3.163769   -0.529696    0.744694
C       0.701197   -0.590507    1.264541
O       0.699444    0.255263    2.388548
C       0.282328   -1.954986    1.564156
C      -0.030707   -3.092495    1.799682
H       0.637602    2.062725    0.337492
H      -0.633138    1.882684   -0.885934
H      -1.019771    1.731658    0.840011
H      -0.915771   -0.528549   -0.278534
H       1.116020   -1.310557   -1.427470
H       1.633555    0.387685   -1.565194
H       1.456779    0.009489    2.933805
H      -0.314623   -4.092681    2.017712
