18

O       0.811625    0.045751   -1.099056
C      -0.082946   -0.004673    0.011452
C      -1.303743   -0.751483   -0.306520
C      -2.272367   -1.415574   -0.566434
C       0.600841   -0.580342    1.256719
C       1.856464    0.185919    1.811703
C       1.110014    0.356253    3.139029
N      -0.121181    1.118018    2.818711
C      -0.088116   -0.352013    2.610965
H       0.937392   -0.857530   -1.410520
H      -0.338213    1.038343    0.223360
H      -3.141966   -1.976701   -0.805027
H       0.823150   -1.640113    1.098379
H       2.735851   -0.456928    1.881400
H       2.119177    1.113480    1.298784
H       1.523113    0.369603    4.139939
H      -0.615137    1.280187    3.695721
H      -0.803038   -0.997353    3.105425
