23

C      -0.269822    0.989142   -1.714005
C      -0.019142   -0.212242   -0.825734
C       1.369263   -0.639414   -0.391513
C       2.628243    0.097972   -0.800163
C       0.390372   -0.100142    0.633403
C       0.582045    1.224247    1.343262
C      -0.744483    1.760921    1.928242
C      -0.581444    3.016336    2.650615
C      -0.415391    4.051819    3.238565
H       0.390723    1.830453   -1.491688
H      -0.120638    0.729753   -2.768234
H      -1.300422    1.346378   -1.608057
H      -0.697329   -1.035201   -1.039888
H       1.516327   -1.716202   -0.345290
H       2.487986    1.179142   -0.865278
H       3.436287   -0.082955   -0.082453
H       2.976867   -0.244924   -1.780787
H      -0.045131   -0.856353    1.284749
H       1.302991    1.106873    2.161269
H       1.000374    1.983901    0.678063
H      -1.470951    1.894112    1.116843
H      -1.176455    1.006472    2.598962
H      -0.282534    4.966011    3.761577
