22

C      -0.091414    1.561382   -0.001188
C      -0.053152    0.038316   -0.010285
C       1.091775   -0.578310   -0.858969
N       1.892356   -0.720342    0.375966
C       0.673279   -0.601145    1.204103
C       2.726026   -1.880608    0.532236
C       4.054846   -1.849828   -0.255104
O       4.831087   -1.896207    0.959097
C       3.642903   -1.872314    1.775571
H       0.902093    1.972532    0.204892
H      -0.426516    1.953458   -0.967623
H      -0.778259    1.934264    0.766415
H      -1.044618   -0.370577   -0.215931
H       0.806407   -1.545635   -1.304942
H       1.547302    0.048109   -1.634416
H       0.787971    0.006678    2.108880
H       0.240876   -1.576491    1.482974
H       2.163164   -2.823728    0.407609
H       4.255985   -2.711410   -0.902900
H       4.217076   -0.921208   -0.815816
H       3.569828   -0.956537    2.374791
H       3.579455   -2.748337    2.432059
