19

C       0.422557    1.324912    0.345474
C       0.022814   -0.112385    0.055844
C       0.464924   -0.758138   -1.271212
C       1.189225   -1.785232   -0.380575
C       2.702642   -1.865327   -0.456515
O       3.227171   -2.529849    0.674006
O       0.796026   -1.074172    0.834589
C      -1.442807   -0.339475    0.408079
O      -2.324173   -0.528042   -0.388128
H       1.495519    1.456621    0.181708
H      -0.122679    2.012513   -0.309679
H       0.200355    1.587473    1.385319
H      -0.356200   -1.131402   -1.882394
H       1.127955   -0.136900   -1.877145
H       0.759013   -2.793562   -0.381844
H       3.005085   -2.439213   -1.339982
H       3.116215   -0.847964   -0.557459
H       2.863375   -2.075292    1.443625
H      -1.627601   -0.336876    1.506210
