17

C       0.150693    1.612379   -0.081544
C       0.143985    0.081429   -0.043572
N      -1.216930   -0.408770    0.052341
C      -1.695365   -1.197055   -0.813151
N      -2.994114   -1.703608   -0.795078
C      -4.021599   -1.481377    0.113502
N      -3.939412   -0.734097    1.133709
C      -0.955596   -1.703628   -1.970689
N      -0.366217   -2.098795   -2.883987
H       1.179045    1.985702   -0.070324
H      -0.338538    1.980753   -0.988243
H      -0.382576    2.017860    0.781969
H       0.690914   -0.322387   -0.909191
H       0.668423   -0.255441    0.859542
H      -3.218225   -2.322822   -1.556978
H      -4.908611   -2.051279   -0.190713
H      -4.828090   -0.743487    1.632280
