20

C       0.905837   -0.042509   -1.201268
C      -0.033635   -0.138350    0.007279
C       0.618060   -0.702105    1.261441
C       1.754933    0.132885    1.856623
C       1.340358    1.471986    2.267318
C       0.984803    2.572280    2.596589
C      -0.251602   -1.456555    2.234518
C       0.749852   -2.201577    1.381529
H       1.345260   -1.017175   -1.439415
H       0.365399    0.307654   -2.086086
H       1.726332    0.660063   -1.023473
H      -0.443003    0.853597    0.234310
H      -0.889284   -0.773218   -0.252387
H       2.172788   -0.395909    2.722277
H       2.575901    0.215720    1.132546
H       0.678313    3.544333    2.893802
H      -0.044199   -1.354577    3.294639
H      -1.305180   -1.565332    1.999872
H       0.373561   -2.810936    0.566303
H       1.631588   -2.609273    1.865472
