23

C       0.011340    1.376897   -0.055154
O      -0.000010   -0.019087    0.124190
C      -1.289266   -0.618511    0.046034
C      -1.821297   -0.700608   -1.394379
C      -3.107455   -1.533698   -1.444854
C      -2.843464   -3.000718   -1.072297
C      -1.976202   -3.155292    0.178332
C      -0.471812   -3.116553    0.066104
C      -1.197078   -1.970063    0.719954
H       1.029737    1.719237    0.147239
H      -0.257435    1.680148   -1.077940
H      -0.675131    1.883860    0.642473
H      -1.998124   -0.000069    0.626166
H      -2.009649    0.308886   -1.773740
H      -1.051133   -1.140479   -2.040558
H      -3.836011   -1.103143   -0.744467
H      -3.562023   -1.476212   -2.439936
H      -3.798263   -3.513919   -0.917073
H      -2.362796   -3.505935   -1.919854
H      -2.373658   -3.831295    0.929072
H       0.117767   -3.770314    0.699416
H      -0.046017   -2.957439   -0.919319
H      -1.099271   -1.904387    1.799384
