20

C       0.076969    1.297094   -0.271326
O      -0.052301   -0.023343    0.231187
C      -1.333574   -0.515157    0.153590
C      -2.459543   -0.271068    1.151484
N      -2.992592   -1.654004    0.844489
C      -4.053864   -1.557110   -0.179364
C      -3.407784   -0.886777   -1.430948
C      -1.921304   -1.076806   -1.148079
C      -1.747776   -1.951466    0.073152
H       1.127711    1.575974   -0.168204
H      -0.211019    1.352247   -1.330242
H      -0.537606    2.009951    0.296141
H      -2.099866   -0.223331    2.183441
H      -3.165998    0.548084    0.971423
H      -4.387648   -2.572078   -0.418768
H      -4.910271   -1.006671    0.219702
H      -3.704842   -1.379340   -2.362220
H      -3.686461    0.168559   -1.521014
H      -1.203577   -1.175493   -1.954977
H      -1.210130   -2.886847    0.156547
