18

C      -0.288272    1.538660    0.059023
C      -0.026727    0.037163    0.003543
C       1.131624   -0.439781   -0.963821
N       1.804140   -0.987838    0.232509
C       2.793298   -1.590402    0.927167
N       2.477046   -1.599507    2.217755
C       1.258922   -0.973142    2.357543
N       0.703692   -0.772500    3.628840
C       0.828672   -0.581879    1.108210
H       0.641207    2.093051    0.221767
H      -0.747376    1.893424   -0.870284
H      -0.968235    1.780435    0.881863
H      -0.962182   -0.499506   -0.190793
H       0.860730   -1.198693   -1.702086
H       1.689867    0.368038   -1.444780
H       3.690798   -2.003771    0.495691
H       1.177332   -1.360459    4.303919
H      -0.291115   -0.956410    3.659475
