21

C       0.978225   -0.761618   -1.240348
C       0.041484   -0.122082   -0.201365
C       0.055706    1.410910   -0.326215
O      -1.291005   -0.599599   -0.413315
C       0.519543   -0.510074    1.203011
C      -0.261063   -0.349374    2.543314
C      -1.108758   -1.610033    2.251438
C       0.370113   -1.896854    1.900523
O       0.759258   -1.228746    3.168489
H       2.015322   -0.442417   -1.098834
H       0.936512   -1.852010   -1.170387
H       0.676983   -0.472322   -2.254220
H      -0.245417    1.714559   -1.336004
H      -0.643138    1.857177    0.386592
H       1.053077    1.820948   -0.140070
H      -1.554876   -0.333944   -1.300333
H       1.542370   -0.142105    1.324120
H      -0.528719    0.560882    3.081719
H      -1.456362   -2.124609    3.148535
H      -1.836654   -1.573125    1.446422
H       0.859982   -2.843305    1.667445
