19

C       0.019073    1.437840    0.072782
C       1.356921    0.731786   -0.071260
C       1.761725    0.097022    1.261705
C       0.419169   -0.735443    1.264974
C       0.611634   -2.198279    1.024450
C       0.367480   -2.744883   -0.166129
C      -0.156037   -1.971074   -1.345206
O      -0.691598   -0.692126   -1.016366
C       0.026193   -0.041041   -0.038646
H      -0.257612    1.935242    1.001286
H      -0.313959    1.944734   -0.827560
H       2.021062    0.956926   -0.896430
H       2.643241   -0.544239    1.192834
H       1.888490    0.787919    2.102032
H      -0.237362   -0.553680    2.125538
H       0.986340   -2.805463    1.845267
H       0.550594   -3.801706   -0.343703
H       0.643500   -1.856085   -2.097667
H      -0.971995   -2.518612   -1.830647
