21

C       0.166687    1.420708   -0.670393
C       0.043250    0.007820   -0.099418
C      -1.405658   -0.445495    0.026340
O       0.692184   -0.974337   -0.920856
C       2.076109   -0.955596   -0.890241
C       2.780539   -1.847659   -1.833979
C       2.890528   -0.332422   -2.038529
C       2.190425    0.255085   -3.199323
O       2.574759    1.226088   -3.807087
H       1.209642    1.736586   -0.753408
H      -0.289650    1.475708   -1.663926
H      -0.347913    2.133173   -0.017842
H       0.516940   -0.017699    0.895897
H      -1.890147   -0.445181   -0.955096
H      -1.456592   -1.458233    0.434130
H      -1.961700    0.227046    0.685739
H       2.505567   -0.814589    0.102543
H       3.667970   -2.378341   -1.510706
H       2.159217   -2.381273   -2.546249
H       3.824479    0.155441   -1.781064
H       1.254739   -0.272647   -3.487133
