18

C       0.032284    1.557637    0.175029
C      -0.003927    0.035965   -0.053480
C      -1.400000   -0.529098   -0.083760
C      -2.028631   -0.971538   -1.202246
C      -3.399566   -1.488412   -1.196050
O      -3.973847   -1.886843   -2.205381
C      -4.017680   -1.483296    0.134168
C      -3.349156   -1.035171    1.219280
N      -2.065615   -0.563093    1.121145
H       1.064299    1.919387    0.189333
H      -0.505043    2.080667   -0.621018
H      -0.431209    1.837261    1.127004
H       0.482373   -0.206298   -1.001590
H       0.575477   -0.467802    0.732363
H      -1.510053   -0.948465   -2.153802
H      -5.031665   -1.851761    0.227884
H      -3.772742   -1.020450    2.216964
H      -1.591216   -0.249594    1.951457
