22

C      -0.091081    1.536515   -0.001183
C      -0.013524    0.018413    0.033598
C      -1.213852   -0.623031   -0.644955
C       1.347768   -0.657683   -0.196687
C       2.527747    0.119850   -0.435936
N       3.478210    0.754217   -0.624065
C       0.680446   -0.679412    1.188026
C       1.298547    0.139173    2.310381
C       0.184996   -2.029650    1.682059
H       0.823279    2.024547    0.336420
H      -0.281594    1.877899   -1.024271
H      -0.918281    1.889894    0.624575
H      -1.319116   -0.236167   -1.664278
H      -1.142549   -1.709830   -0.712460
H      -2.136314   -0.380815   -0.104620
H       1.329020   -1.591885   -0.750129
H       1.798812    1.042896    1.962235
H       0.530942    0.431237    3.035777
H       2.045219   -0.459760    2.842651
H       0.995992   -2.563944    2.188596
H      -0.626494   -1.899929    2.407469
H      -0.182771   -2.674243    0.882042
