20

C       0.084180    1.515898   -0.027008
C      -0.089523    0.029392    0.053670
C      -1.437738   -0.717451    0.080611
C      -0.824217   -1.779255    1.049776
C      -1.405289   -1.774529    2.459956
C      -0.665611   -3.172695    0.502808
O      -0.687197   -3.451417   -0.673842
C       0.538216   -1.001378    0.951624
N       0.976610   -0.843465   -0.422746
H       1.129990    1.786582    0.138527
H      -0.206390    1.886598   -1.017334
H      -0.535876    2.028583    0.716135
H      -2.239708   -0.152895    0.563527
H      -1.788910   -1.095349   -0.883037
H      -2.447273   -2.111852    2.463625
H      -0.834627   -2.433624    3.124545
H      -1.375369   -0.767353    2.886284
H      -0.451781   -3.957567    1.265404
H       1.261419   -0.920249    1.757044
H       0.656998   -1.594820   -1.033732
