16

C      -0.019506    1.512131   -0.046165
C      -0.025854    0.016750    0.004662
C       0.771294   -1.025219   -0.859313
C       0.068746   -1.873867    0.235520
N       0.342565   -0.783071    1.268876
C       0.165538   -3.323573    0.537175
O       0.487961   -4.154287   -0.276182
C      -1.191568   -0.984136   -0.093420
O      -2.347997   -1.061525   -0.325422
H       0.994540    1.908781    0.067140
H      -0.415050    1.860305   -1.005105
H      -0.642599    1.921736    0.753719
H       0.500815   -1.174991   -1.907873
H       1.854651   -0.958561   -0.721070
H       1.362235   -0.720363    1.373568
H      -0.111716   -3.590711    1.579855
