19

C       0.235766    1.440834    0.002059
O       1.183073    0.404350   -0.223102
C      -0.182492    0.026076    0.027195
C      -0.469357   -0.706154    1.273897
C      -1.382920   -1.677518    1.406830
C      -1.475431   -2.196084    2.824826
C      -0.343811   -1.462924    3.545027
C       1.063092   -1.667361    3.049524
C       0.265632   -0.477677    2.557317
H       0.350143    1.989450    0.935619
H      -0.014315    2.051185   -0.865410
H      -0.705594   -0.346208   -0.854188
H      -1.986701   -2.073131    0.597066
H      -2.452664   -1.962489    3.269730
H      -1.369467   -3.287749    2.875406
H      -0.478819   -1.189184    4.584592
H       1.864995   -1.472936    3.754093
H       1.264815   -2.465095    2.341724
H       0.579442    0.519334    2.844257
