17

O       0.267389    0.169774    0.555363
C       0.114404    1.301537    0.151345
N      -1.017954    2.070048    0.272244
C      -0.898274    3.388588   -0.307039
C       0.626880    3.474278   -0.584957
C       1.516966    4.180732    0.417692
C       2.526149    3.390325    0.776867
C       2.429901    2.042229    0.093583
N       1.088807    2.074917   -0.511227
H      -1.893178    1.636390    0.509472
H      -1.467207    3.487664   -1.240543
H      -1.234295    4.174104    0.379603
H       0.790649    3.894618   -1.586371
H       1.362401    5.209608    0.719637
H       3.344623    3.657044    1.434215
H       3.208958    1.927248   -0.672645
H       2.498745    1.182020    0.766035
