15

N      -0.040631    1.431141   -0.156190
C      -0.003253    0.041664   -0.073958
C      -1.168142   -0.720845   -0.002406
F      -2.332180   -0.044808    0.056891
C      -1.171348   -2.105700    0.020163
C       0.047188   -2.775726   -0.027549
C       1.236992   -2.051693   -0.090312
C       1.211894   -0.661431   -0.111331
O       2.339019    0.116938   -0.160668
H       0.804601    1.876720    0.170198
H      -0.876803    1.838187    0.236418
H      -2.117449   -2.629794    0.075702
H       0.072913   -3.858781   -0.013452
H       2.193083   -2.566956   -0.122368
H       3.114455   -0.452330   -0.151755
