18

C       0.082661    1.522332   -0.041522
C       1.344974    0.744299    0.101461
C       1.913786    0.253234    1.485813
C       1.442647   -1.218369    1.342434
C       0.038066   -0.497157    1.341241
C      -0.846689   -0.967817    2.489160
O       0.153049   -0.398693    3.401556
C       0.661262    0.489816    2.350125
N      -0.000025    0.047622   -0.024704
H      -0.329769    2.097016    0.779002
H      -0.132194    1.944238   -1.019548
H       2.014876    0.652929   -0.748407
H       2.934873    0.559378    1.718378
H       1.699470   -1.734335    0.416264
H       1.623085   -1.836267    2.219623
H      -1.808316   -0.449046    2.590327
H      -0.975153   -2.043842    2.638936
H       0.332411    1.508507    2.553518
