18

O       0.670402   -0.595724    0.433264
C       0.216541    0.521357    0.315962
N       0.928648    1.625448   -0.051974
C       2.336314    1.598172   -0.352333
C       2.829120    2.178244   -1.704466
C       4.053569    2.809625   -0.959645
C       3.282613    2.582645    0.384481
C       5.298391    1.971708   -1.067781
O       6.382365    2.389430   -1.384667
H      -0.848446    0.764654    0.500036
H       0.437170    2.504053   -0.115173
H       2.650078    0.561774   -0.219837
H       3.030142    1.470526   -2.512610
H       2.164745    2.960474   -2.082486
H       4.303544    3.840159   -1.213440
H       2.766647    3.497249    0.690207
H       3.844500    2.196789    1.238746
H       5.151649    0.891247   -0.826338
