21

C      -0.035967    1.554569   -0.010667
C       0.028998    0.013500   -0.022478
C       0.711078   -0.456071   -1.229282
C       1.290278   -0.823848   -2.217017
C       0.697658   -0.553201    1.249670
C      -0.030297   -0.178982    2.571957
C       0.182200   -1.395111    3.441597
C       0.637251   -2.433966    2.744171
C       0.812982   -2.102630    1.282583
H       0.970906    1.980790    0.038534
H      -0.516315    1.929310   -0.918142
H      -0.604685    1.911298    0.852479
H      -1.002137   -0.369837   -0.048442
H       1.791429   -1.156727   -3.091857
H       1.713658   -0.143562    1.298417
H       0.359677    0.742221    3.018868
H      -1.105507   -0.007120    2.406285
H      -0.054114   -1.402973    4.500098
H       0.829873   -3.422635    3.146463
H       0.026015   -2.578906    0.678720
H       1.762886   -2.453515    0.866856
