18

O      -0.013398    1.405092    0.164005
C       0.011951   -0.001056    0.045407
C      -1.434214   -0.502456    0.148567
C      -1.542282   -1.993443   -0.174297
N      -0.939156   -2.269348   -1.476373
C       0.106046   -1.543994   -1.924427
C       0.615834   -0.462166   -1.272722
C       1.734517    0.233103   -1.848299
O       2.274277    1.225270   -1.368474
H       0.855098    1.709520   -0.150121
H       0.597631   -0.440203    0.874393
H      -1.826093   -0.311075    1.151034
H      -2.037531    0.075577   -0.559193
H      -1.045392   -2.592062    0.603417
H      -2.590680   -2.304016   -0.205105
H      -1.199781   -3.108651   -1.964144
H       0.532071   -1.870070   -2.870583
H       2.112386   -0.193768   -2.805061
