11

O      -0.097232    1.286468    0.010086
C       0.056644   -0.029956    0.002238
N       1.233614   -0.569764   -0.007182
C       1.234305   -1.940353   -0.014412
C       0.115800   -2.708245   -0.012176
C      -1.182484   -2.091756   -0.001437
O      -2.276541   -2.566244    0.001912
O      -1.110731   -0.644461    0.005642
H       0.793653    1.665769    0.007089
H       2.219138   -2.397938   -0.022440
H       0.149980   -3.788535   -0.018187
