15

O       0.042179    0.002247    0.021475
C      -0.033223    1.194331    0.031240
C      -1.172035    2.200500    0.260414
C      -0.077863    3.246404    0.635641
C       1.025296    2.318425    0.034941
C       2.321120    2.087444    0.821811
C       3.268178    1.223886    0.118800
N       4.025796    0.563266   -0.450422
H      -1.691066    2.439618   -0.673291
H      -1.914215    1.927014    1.013331
H      -0.169273    4.234251    0.183994
H       0.026408    3.358260    1.717962
H       1.256811    2.608495   -0.995952
H       2.812748    3.048083    1.015128
H       2.095267    1.642240    1.797547
