17

C      -0.084019    1.506600   -0.002436
C       0.035201    0.009438   -0.016262
C       0.732803   -0.801115   -1.139636
C      -0.303613   -1.821959   -0.630446
C       0.201976   -2.190351    0.780112
C       0.472937   -0.734057    1.271492
O      -1.205912   -0.708172   -0.350200
H       0.888976    1.963867    0.205854
H      -0.444869    1.879876   -0.964761
H      -0.783580    1.828232    0.776330
H       0.479394   -0.417891   -2.129087
H       1.799548   -1.027944   -1.055967
H      -0.738728   -2.599739   -1.257761
H      -0.571784   -2.695883    1.361496
H       1.094917   -2.821467    0.763013
H       1.518089   -0.546981    1.533973
H      -0.154956   -0.449305    2.119045
