21

C       0.964509   -0.570925   -0.844970
C      -0.180667   -0.072017    0.048230
C      -0.170758    1.459535    0.135959
C      -1.541955   -0.580985   -0.466535
C      -1.754784   -2.093978   -0.307394
C      -2.506312   -2.208552    1.018364
O      -2.684891   -3.198145    1.676123
C      -2.985584   -0.795899    1.356242
O      -2.644806    0.013742    0.251144
H       1.926688   -0.200367   -0.478576
H       1.025867   -1.662528   -0.883247
H       0.841280   -0.207654   -1.872424
H      -0.028646   -0.477396    1.060093
H      -0.989217    1.824908    0.758934
H       0.775505    1.817759    0.553282
H      -0.285033    1.905474   -0.859578
H      -1.665016   -0.255719   -1.505350
H      -2.403509   -2.489422   -1.097421
H      -0.847259   -2.698877   -0.289708
H      -4.069545   -0.770960    1.509948
H      -2.504332   -0.465816    2.290857
