20

C      -0.201267    1.506633   -0.015779
C       0.047557    0.000051    0.008392
C       0.816094   -0.481927   -1.224338
N       1.075149   -1.914110   -1.134912
C       1.570484   -2.411105    0.041337
C       2.195116   -3.775074   -0.042708
C       1.476754   -1.712362    1.206395
C       0.769209   -0.446614    1.297598
O       0.678416    0.203740    2.326703
H       0.740013    2.056613   -0.125849
H      -0.859827    1.787805   -0.843743
H      -0.654692    1.820698    0.925418
H      -0.919696   -0.526386    0.022793
H       0.246650   -0.284217   -2.137549
H       1.765887    0.076441   -1.294153
H       1.402207   -2.361234   -1.977614
H       3.072581   -3.765411   -0.701084
H       2.507231   -4.123399    0.942172
H       1.484075   -4.498669   -0.457833
H       1.877528   -2.128021    2.122488
