17

C      -0.194103    1.537131   -0.085147
C       0.060763    0.050689    0.022882
O       1.139681   -0.457164   -0.828999
C       1.674653   -1.203035    0.248378
C       2.205485   -0.294429    1.337080
C       2.816629    0.980034    1.080986
N       3.331287    1.999643    0.895869
C       0.709374   -0.617433    1.251469
N       0.082473   -1.211606    2.374988
H       0.692183    2.124933    0.155722
H      -0.510836    1.787766   -1.102385
H      -1.004506    1.819417    0.596246
H      -0.852271   -0.511138   -0.224638
H       2.052293   -2.201613    0.063682
H       2.655830   -0.844630    2.158827
H      -0.189647   -0.516004    3.062926
H      -0.748661   -1.728769    2.105723
