13

O      -0.232324    1.500067   -0.044372
C      -0.102274    0.139489   -0.000368
C      -1.112005   -0.902616   -0.236081
C      -0.755482   -1.538736   -1.604086
N       0.749944   -1.626556   -1.544090
C       1.000378   -0.852452   -0.576289
O       1.382987   -1.333396    0.690975
C      -0.009435   -0.900044    1.014997
H       0.524057    1.899848    0.401724
H      -2.140573   -0.786958    0.099793
H      -1.086853   -2.576226   -1.702979
H      -1.170712   -0.961643   -2.443354
H      -0.300463   -1.009177    2.052808
