19

C      -0.013311    1.507133    0.077865
C      -0.002622    0.005692   -0.003359
C      -0.005429   -0.655068   -1.169399
C       0.007313   -2.129819   -1.277657
N       1.251400   -2.844437   -0.879093
C       0.061951   -2.942258   -0.025361
C       0.061571   -2.219608    1.293171
N       1.247511   -1.442899    1.672761
C       0.001582   -0.727326    1.290799
H       0.891138    1.878076    0.576448
H      -0.067094    1.963989   -0.913889
H      -0.866490    1.867993    0.667048
H      -0.021601   -0.092011   -2.099925
H      -0.536168   -2.542475   -2.125011
H       1.332872   -3.696136   -1.430515
H      -0.487696   -3.880348   -0.022072
H      -0.485862   -2.727700    2.083476
H       1.333283   -1.441812    2.686867
H      -0.545697   -0.242065    2.097388
