13

O       0.376725    0.290992    0.615418
C       0.486278    1.476486    0.541575
O       0.658947    2.112238   -0.640240
C       0.839231    3.532386   -0.594659
C       2.284608    3.887064   -0.369294
C       2.660800    5.097251    0.370878
O       2.730950    3.810846    0.986758
H       0.451218    2.169521    1.401994
H       0.491899    3.904787   -1.562168
H       0.220107    3.974834    0.195153
H       2.983502    3.475482   -1.097238
H       3.617801    5.573523    0.166812
H       1.885599    5.758804    0.755654
