17

O      -0.259594    1.451657    0.012291
C      -0.018593    0.053562    0.003017
C      -1.379861   -0.628173    0.011620
C      -1.266962   -2.133872    0.002655
O      -0.237228   -2.762854   -0.010955
O      -2.488728   -2.708546    0.011085
C      -2.475967   -4.151317    0.002897
C      -3.846814   -4.630923    0.014266
C      -4.967464   -5.061099    0.023152
H       0.590240    1.901131    0.007201
H       0.545117   -0.258780   -0.887606
H       0.560822   -0.267780    0.880267
H      -1.954383   -0.320257    0.892179
H      -1.969906   -0.311062   -0.855322
H      -1.938597   -4.502377   -0.884689
H      -1.920631   -4.512207    0.875341
H      -5.960091   -5.438832    0.030391
