18

O      -0.039964    1.374460    0.068682
C       0.050469   -0.013296    0.034688
C       0.893501   -0.784893    1.059665
N       0.540979   -2.158226    0.625834
C      -0.953018   -2.085945    0.697984
C      -1.305383   -0.773079   -0.031482
O      -1.168134   -0.983658   -1.459429
C       0.259175   -0.779091   -1.319465
C       0.903348   -2.089265   -0.826084
H       0.840850    1.743149   -0.058801
H       1.971045   -0.610479    0.968652
H       0.587010   -0.604154    2.093785
H      -1.413266   -2.951594    0.217376
H      -1.247734   -2.062766    1.752415
H      -2.238507   -0.275907    0.240599
H       0.707717   -0.293244   -2.189699
H       1.995593   -2.068517   -0.908639
H       0.522409   -2.958070   -1.367063
