19

C       0.135704    1.011433   -0.475636
O      -0.193698    0.113625    0.571276
C      -1.341089   -0.620743    0.308253
C      -1.409504   -1.709252   -0.716364
O      -0.159967   -2.379216   -0.863527
C      -0.240991   -2.864229    0.515582
C       1.053656   -2.655707    1.278378
O       2.100661   -3.394822    0.668026
C      -1.501109   -2.037614    0.780483
H       1.031853    1.551003   -0.161890
H       0.342299    0.473440   -1.409738
H      -0.672012    1.736524   -0.654037
H      -2.270368   -0.047995    0.378535
H      -2.120105   -1.780572   -1.532876
H      -0.475137   -3.935679    0.481873
H       1.284218   -1.587361    1.340216
H       0.942063   -3.047264    2.296037
H       2.170892   -3.067889   -0.236115
H      -2.333663   -2.360334    1.391133
