14

C       0.091571    1.407880   -0.020431
N       0.038420   -0.036315    0.009215
N       0.086786   -0.781676   -1.137111
C       0.097345   -2.033365   -0.768263
N       0.067016   -2.137332    0.608238
C       0.051873   -2.913854    1.751485
N       0.019640   -2.132555    2.804285
N       0.012791   -0.803401    2.410347
C       0.039139   -0.852589    1.098846
H       1.113158    1.765803   -0.184610
H      -0.552600    1.773782   -0.821661
H      -0.268888    1.778944    0.940411
H       0.120509   -2.867509   -1.448185
H       0.064258   -3.990268    1.754571
