18

C       0.293124    1.448378   -0.050983
N      -0.273312    0.148684    0.307584
C       0.461644   -0.677716    1.129860
C       0.700364   -2.016749    1.128358
N       0.272626   -2.923111    0.131605
N       1.426556   -2.338881    2.278726
C       1.602067   -1.217993    2.893063
C       2.334936   -0.936742    4.153344
O       1.026950   -0.145078    2.250398
H       1.239880    1.377319   -0.607960
H      -0.433325    1.991440   -0.659822
H       0.473446    2.025699    0.858223
H      -0.587950   -0.386791   -0.492666
H      -0.404198   -3.584048    0.504758
H       1.054226   -3.478703   -0.205101
H       3.172078   -0.249912    3.984570
H       1.681087   -0.477714    4.902981
H       2.723527   -1.875371    4.549723
