16

O      -0.071870    1.467512   -0.032233
C       0.019386    0.046054    0.012292
C       0.650206   -0.478597    1.294641
C      -0.157915   -1.295787    1.965707
C      -1.483507   -1.438272    1.275588
C      -2.287317   -0.140140    1.167415
C      -1.389253   -0.544443    0.039073
C      -2.163998   -2.699790    1.263362
N      -2.711388   -3.719350    1.266565
H       0.820418    1.822251   -0.101019
H       0.565141   -0.319502   -0.871376
H       1.635505   -0.163115    1.619767
H       0.053381   -1.787638    2.907304
H      -3.354807   -0.238063    1.006275
H      -1.981190    0.673849    1.812929
H      -1.843576   -0.861261   -0.890329
