21

O      -0.069698    1.432437    0.010736
C       0.014646    0.015227    0.002240
C      -1.404062   -0.537747    0.012725
C      -1.442278   -2.068007    0.004869
C      -2.863258   -2.612299    0.015473
O      -2.803480   -4.025692    0.007249
C      -4.085553   -4.619064    0.016428
C      -3.965905   -6.071394    0.007483
C      -3.897433   -7.270157    0.000536
H       0.824076    1.786795    0.003823
H       0.548207   -0.347775   -0.891660
H       0.565066   -0.357399    0.881846
H      -1.919587   -0.147139    0.898826
H      -1.936270   -0.137689   -0.859182
H      -0.927841   -2.458797   -0.881389
H      -0.911094   -2.468238    0.876919
H      -3.405597   -2.257589    0.909376
H      -3.422495   -2.247993   -0.864045
H      -4.653455   -4.300335    0.907958
H      -4.670517   -4.290794   -0.860480
H      -3.828751   -8.329765   -0.005946
