19

C      -0.102643    1.461997    0.144734
C       0.058250   -0.022169   -0.042905
C       0.112786   -0.922456    1.168571
C       1.326413   -0.672088    2.050022
C       1.289188    0.345719    3.164310
C       1.323470   -1.127763    3.486450
N       0.167884   -0.613537   -1.171865
O       0.139852    0.279208   -2.258075
H      -0.461996    1.934484   -0.769043
H      -0.797373    1.670685    0.963928
H       0.855764    1.921164    0.412825
H      -0.796825   -0.776582    1.768507
H       0.111730   -1.959604    0.819086
H       2.273702   -0.766754    1.525478
H       2.177411    0.937480    3.356251
H       0.358768    0.876797    3.336600
H       0.415966   -1.582942    3.870198
H       2.235731   -1.546420    3.896493
H       0.181368   -0.322522   -3.008239
