22

C      -0.057505    1.339424   -0.133165
O       0.068409   -0.056272    0.012175
C       0.742515   -0.554051    1.180320
C       2.169872    0.010929    1.292255
C      -0.059798   -0.226842    2.450497
C       0.757353   -2.080354    0.971731
C       1.496200   -2.566792   -0.278219
O       1.413633   -3.978835   -0.425895
H       0.913260    1.846781   -0.221777
H      -0.614540    1.503672   -1.059561
H      -0.617443    1.805621    0.689658
H       2.165928    1.064434    1.586550
H       2.733524   -0.537869    2.052846
H       2.704392   -0.074129    0.342329
H      -1.086861   -0.591772    2.356737
H       0.397453   -0.703736    3.322891
H      -0.091986    0.848937    2.646422
H       1.193055   -2.562601    1.853784
H      -0.287267   -2.413169    0.907030
H       1.111551   -2.042634   -1.162580
H       2.566307   -2.349313   -0.205615
H       0.488040   -4.201546   -0.567537
