21

C      -0.110292    1.535897    0.013714
C       0.024013    0.021562    0.028357
C      -1.261938   -0.802509    0.383953
C      -0.447191   -1.625688    1.417991
C       0.787760   -0.704981    1.184689
C       2.034640   -1.368048    0.568671
C       1.665225   -1.620181   -0.903281
C       0.675895   -0.504217   -1.256826
O       0.448509   -0.089803   -2.365891
H       0.869576    2.024863   -0.024540
H      -0.672390    1.854011   -0.869645
H      -0.630968    1.891514    0.908585
H      -2.028617   -0.169533    0.838548
H      -1.724189   -1.356391   -0.437519
H      -0.845416   -1.624140    2.434822
H      -0.278243   -2.666839    1.127801
H       1.032397   -0.078899    2.045462
H       2.884848   -0.678028    0.621949
H       2.324854   -2.279457    1.100391
H       2.506886   -1.628908   -1.598680
H       1.140612   -2.577187   -1.027229
