22

C      -1.424507   -1.045098   -0.027900
C      -0.044281   -0.397294   -0.152160
O      -0.155974    1.017282   -0.340610
C       0.789795   -0.583893    1.106321
C       1.177071   -2.011125    1.510795
N       2.063463   -2.534133    0.438034
C       2.623350   -1.670578    1.507758
C       2.335608   -0.217475    1.098646
C       2.995596    0.311870   -0.167511
H      -1.972145   -0.624665    0.822183
H      -2.018024   -0.871115   -0.933009
H      -1.339870   -2.128179    0.107265
H       0.488046   -0.851799   -0.998252
H      -0.614122    1.167817   -1.173339
H       0.292013   -0.062377    1.930059
H       0.625823   -2.691577    2.148923
H       2.290085   -3.497204    0.684067
H       3.421206   -2.036189    2.143472
H       2.536701    0.455376    1.937473
H       2.921067   -0.418386   -0.977369
H       2.517290    1.239742   -0.491821
H       4.058612    0.512506    0.007921
