13

F       0.004168    0.034746    0.003458
C      -0.023975    1.364897    0.010679
C      -1.238096    2.027884    0.029902
C      -1.215569    3.417689    0.036764
C       0.019983    4.063529    0.024001
N       1.187461    3.425254    0.005514
C       1.181293    2.081495   -0.001329
C       2.428727    1.388858   -0.021140
C       3.472242    0.790833   -0.037781
H      -2.160063    1.458311    0.038975
H      -2.136702    3.988804    0.051700
H       0.071735    5.149025    0.028920
H       4.398704    0.271268   -0.052427
