18

C      -0.009905    1.574616    0.041954
O       0.939577    1.958250   -0.959619
C       2.048075    1.053100   -0.898182
C       1.444152   -0.262176   -0.457445
C       2.058360   -1.329768    0.415557
O       0.994705   -1.801913    1.246902
C      -0.021581   -0.802686    1.365732
C       0.127716    0.071424    0.143939
N       0.197606   -0.684678   -1.117713
H       0.216168    2.039642    1.015094
H      -0.987913    1.932914   -0.294502
H       2.507886    1.047043   -1.891468
H       2.802582    1.384211   -0.166442
H       2.444233   -2.194074   -0.132931
H       2.876400   -0.896505    1.014187
H      -0.979815   -1.326377    1.431273
H       0.113340   -0.196308    2.276428
H       0.004356   -0.050600   -1.892466
