22

C      -0.003098    1.617831   -0.035578
C      -0.007754    0.085433    0.012710
C      -1.425818   -0.530755    0.018985
C      -2.107362   -0.147069   -1.280641
O      -3.060715    0.579251   -1.394857
C      -1.434820   -2.076772    0.160781
C      -0.713804   -2.560894    1.427015
C      -2.873647   -2.618591    0.137562
H       1.021084    2.002590   -0.024389
H      -0.495032    2.001965   -0.934493
H      -0.528815    2.039095    0.827849
H       0.553345   -0.317115   -0.842132
H       0.526062   -0.243893    0.908644
H      -2.011322   -0.087728    0.834692
H      -1.623794   -0.599257   -2.182664
H      -0.902279   -2.489606   -0.709244
H      -1.155827   -2.113594    2.325161
H      -0.805674   -3.647820    1.520998
H       0.352728   -2.323397    1.421656
H      -3.445402   -2.239159    0.992401
H      -3.412343   -2.328388   -0.769713
H      -2.877120   -3.711650    0.192433
