19

O      -0.031626    1.465416    0.081687
C       0.009378    0.050580   -0.030053
C       0.655358   -0.621040    1.244271
O      -0.025418   -1.852469    1.502345
C      -1.279973   -1.743749    0.897458
C      -2.179716   -0.591738    1.206935
C      -1.352090   -0.584156   -0.068744
C      -1.967383   -1.517737   -1.133467
C      -1.841132   -2.725942   -0.134502
H       0.871421    1.797371    0.041392
H       0.566042   -0.245010   -0.931969
H       1.720385   -0.845465    1.126659
H       0.538810    0.079916    2.082704
H      -3.258370   -0.696327    1.130664
H      -1.849511    0.083224    1.987261
H      -2.977722   -1.257713   -1.463224
H      -1.334731   -1.635379   -2.016177
H      -1.087683   -3.447924   -0.454410
H      -2.754407   -3.261011    0.141116
