17

C      -0.027853    1.586605   -0.048308
C      -0.002796    0.059129    0.073124
C       0.789013   -0.629287   -1.101786
O       1.571854   -1.732639   -0.576254
C       1.613578   -1.514840    0.771233
C       0.781724   -0.523159    1.209520
N       0.912902   -0.491217    2.558068
N       1.806956   -1.402848    3.001620
C       2.242714   -2.046270    1.907727
H       0.988008    1.993927   -0.049206
H      -0.522794    1.895676   -0.975035
H      -0.576035    2.040290    0.783435
H      -1.039317   -0.307233    0.091132
H       0.137362   -1.024944   -1.883630
H       1.481025    0.096436   -1.548822
H       0.480873    0.120534    3.228336
H       2.969198   -2.837529    2.002921
