23

C      -0.368361    1.581505    0.132441
C      -0.069769    0.087106    0.072253
C       0.431959   -0.520730   -1.247302
C       1.804987   -0.009359   -1.592528
C       1.673870   -1.093591   -0.554020
C       2.324771   -2.441002   -0.695811
C       1.209363   -0.497776    0.787205
C       2.154663    0.419244    1.542575
O       1.497278    0.826599    2.738679
H       0.443392    2.182519   -0.289950
H      -1.275343    1.815840   -0.435752
H      -0.515433    1.902077    1.167782
H      -0.947402   -0.460618    0.428166
H      -0.196128   -0.991621   -1.995803
H       2.190564   -0.346916   -2.550112
H       2.111696    1.001005   -1.335842
H       2.360999   -2.753910   -1.744755
H       3.356222   -2.432447   -0.321668
H       1.778148   -3.209191   -0.136162
H       0.910875   -1.294610    1.476464
H       3.086219   -0.126086    1.768835
H       2.430995    1.290760    0.931411
H       2.060211    1.462633    3.189550
