16

C      -0.041898    1.706136    0.066462
C      -0.046425    0.190465   -0.058447
O       0.636952   -0.182932   -1.258111
C      -0.007426   -0.949873   -2.171339
O       0.496453   -1.272992   -3.200328
C       0.694972   -0.488365    1.122318
O       0.191564   -0.084469    2.378199
C       0.654529   -1.955416    0.973694
N       0.555434   -3.102353    0.874811
H       0.982645    2.086474    0.018836
H      -0.612945    2.152063   -0.751491
H      -0.483145    2.007463    1.018307
H      -1.077278   -0.191030   -0.087721
H      -1.031634   -1.222979   -1.853771
H       1.740699   -0.164301    1.091234
H      -0.653907   -0.522735    2.530658
