16

O      -0.024034    1.417455    0.092929
C       0.004900    0.032211    0.051245
C      -0.377595   -0.731452   -1.194970
C      -1.265917   -0.785226    0.034755
C      -1.092261   -1.950395    1.005624
C       0.329193   -1.806954    1.494638
C       0.920268   -0.712745    0.991500
C       2.242996   -0.264115    1.249142
N       3.312779    0.144766    1.424419
H       0.716520    1.755249   -0.423740
H      -0.757687   -0.137284   -2.019370
H       0.203330   -1.602799   -1.480962
H      -2.220291   -0.277260   -0.022566
H      -1.799691   -1.899694    1.843692
H      -1.254087   -2.924444    0.526268
H       0.807417   -2.523142    2.151777
