17

C       0.078532    1.422245    0.132725
N       0.053637   -0.025371    0.120496
C       0.527845   -0.606007   -0.885591
O       0.505731   -1.955437   -0.978522
C       1.196222   -2.545331   -2.077611
C       2.642852   -2.884608   -1.739349
C       0.381752   -3.772634   -2.481080
O       0.836194   -4.702544   -3.091313
H       0.538569    1.871326   -0.762831
H      -0.943944    1.805976    0.222623
H       0.627587    1.771479    1.014252
H       0.972916   -0.101437   -1.759019
H       1.161410   -1.860849   -2.942352
H       3.079422   -3.461918   -2.557481
H       3.229872   -1.975541   -1.585380
H       2.682890   -3.485650   -0.827182
H      -0.683723   -3.719839   -2.170195
