13

O       0.002324    0.018576    0.262083
C       0.018042    1.187321    0.024788
O      -1.111153    1.924127   -0.181985
C      -0.832250    3.247108   -0.657511
C       0.680646    3.415401   -0.551034
N       1.139199    3.223493    0.839314
C       1.214906    2.094731   -0.111785
C       1.382980    4.289330   -1.443529
N       1.938918    5.013380   -2.153700
H      -1.170075    3.330663   -1.694632
H      -1.368066    3.963054   -0.030395
H       2.070894    3.621654    0.950326
H       2.167683    1.686968   -0.422552
