13

C       0.063497   -3.742431   -0.044124
C       0.040829   -2.535494   -0.019278
C       0.013961   -1.176744    0.008701
C      -0.001902    0.032663    0.038825
C      -0.045113    1.472135    0.068580
C       0.553012    2.195129    1.226152
O       1.237623    2.138944   -0.010749
C      -1.120305    2.087453   -0.672898
C      -2.024037    2.588122   -1.285103
H       0.085324   -4.803927   -0.066777
H       0.134455    3.162913    1.496497
H       0.981695    1.608033    2.036297
H      -2.819719    3.030616   -1.832542
