19

C       0.094853    1.429948    0.097223
N       0.139332   -0.021533    0.052667
C       0.542710   -0.609023   -0.988761
O       0.987867    0.054848   -2.102714
C       0.823809   -0.642903   -3.345140
C       1.571673   -1.962305   -3.322703
N       1.090126   -2.815077   -2.222894
C       1.890311   -2.818296   -1.005782
C       0.579821   -2.103146   -1.038402
H       0.966246    1.808199    0.646633
H       0.083486    1.906756   -0.889350
H      -0.792976    1.737859    0.658496
H      -0.245219   -0.806826   -3.534614
H       1.213179    0.025157   -4.116898
H       1.414664   -2.491861   -4.269553
H       2.647109   -1.764398   -3.229024
H       1.969182   -3.770758   -0.489042
H       2.791646   -2.207938   -0.984064
H      -0.272932   -2.568838   -0.555345
