18

C      -0.010664    1.425440   -0.117666
O      -0.022759    0.025020    0.055443
C      -1.307097   -0.567726    0.026470
C      -1.819466   -0.771288   -1.401054
C      -1.164595   -1.917198    0.760574
C      -0.817096   -1.765641    2.162418
C      -0.546035   -1.634491    3.332448
C      -0.237935   -1.483181    4.653333
N       0.021970   -1.353712    5.778457
H       1.024867    1.751218    0.002808
H      -0.358326    1.731089   -1.114925
H      -0.631876    1.929994    0.637549
H      -2.017544    0.061169    0.586564
H      -1.893900    0.183222   -1.928425
H      -1.138235   -1.419195   -1.961575
H      -2.814677   -1.226892   -1.397970
H      -2.100791   -2.481681    0.676241
H      -0.387474   -2.502116    0.252902
