15

C      -0.067783   -1.210857   -0.089675
C      -0.003045   -0.015155    0.012447
C       0.074496    1.431468    0.115869
O      -0.087670    1.940264    1.478191
C       1.130769    2.697783    1.361357
C       2.295058    1.762388    1.174129
C       1.439052    2.116088   -0.014091
C       1.184151    4.015444    1.886650
C       1.233658    5.128356    2.340471
H      -0.126478   -2.268010   -0.176028
H      -0.676006    1.902531   -0.529770
H       3.272549    2.232285    1.181125
H       2.240427    0.773095    1.618336
H       1.812392    2.599414   -0.905617
H       1.273273    6.110885    2.741569
