14

O      -0.038878    1.454284   -0.105158
C      -0.000701    0.057815    0.006231
C       0.229663   -0.633444    1.385457
N      -1.078154   -1.383470    1.271135
C      -2.144513   -0.353368    1.244931
C      -2.082367    0.849588    2.039054
N      -2.074395    1.778392    2.727593
C      -1.368719   -0.600419    0.002075
H       0.856971    1.799219   -0.031551
H       0.640884   -0.393293   -0.762210
H       1.056435   -1.344661    1.399861
H       0.286940    0.027213    2.253932
H      -3.129519   -0.812352    1.259421
H      -1.853388   -1.052530   -0.856934
