16

C      -0.132168    1.570097    0.004265
C       0.009392    0.050758    0.075814
O      -1.221172   -0.584345    0.376843
C       0.661549   -0.501629   -1.214114
O       1.929572    0.081486   -1.436351
C       0.805356   -2.030013   -1.218999
F      -0.367344   -2.664777   -1.219168
F       1.482532   -2.436353   -2.299894
F       1.504071   -2.433268   -0.137178
H       0.829945    2.046407   -0.195180
H      -0.820099    1.853343   -0.802759
H      -0.535960    1.949090    0.946228
H       0.668621   -0.217248    0.910985
H      -1.863464   -0.337788   -0.298034
H       0.047605   -0.238964   -2.084222
H       2.521134   -0.222336   -0.737009
