16

C      -0.017564    1.484069    0.010421
C       0.003284    0.030322    0.002646
C       0.019146   -1.176204   -0.003798
C       0.037942   -2.598934   -0.011678
C       1.244044   -3.315066   -0.022317
C       1.203345   -4.703570   -0.029629
N       0.075052   -5.420441   -0.027208
C      -1.071693   -4.733573   -0.017050
C      -1.148896   -3.346605   -0.009081
H       0.996909    1.896567    0.002970
H      -0.544634    1.876189   -0.866546
H      -0.527849    1.866932    0.901301
H       2.191636   -2.789618   -0.024764
H       2.130757   -5.271737   -0.037911
H      -1.983837   -5.325997   -0.015145
H      -2.109940   -2.846245   -0.000965
