18

O      -0.050183    1.416895   -0.225900
C       0.005240    0.015648    0.020265
C      -1.427839   -0.487721    0.059592
N      -2.072575   -0.202254   -1.213334
C      -3.402622   -0.568198   -1.352254
C      -4.237434   -1.358557   -0.578510
C      -5.451520   -1.398461   -1.302713
N      -5.400742   -0.699044   -2.426513
N      -4.134107   -0.200094   -2.436945
H       0.839843    1.732653   -0.404807
H       0.553559   -0.504111   -0.778482
H       0.496450   -0.204694    0.979267
H      -1.424851   -1.570485    0.226605
H      -1.954754   -0.021852    0.908182
H      -1.873128    0.749223   -1.498588
H      -4.007912   -1.821377    0.366228
H      -6.365257   -1.910122   -1.035464
H      -3.824914    0.336906   -3.228458
