24

C       0.176112    1.347638    0.169687
O       0.063382   -0.050986    0.252949
C      -1.220942   -0.520183   -0.096012
C      -1.231227   -2.037853    0.019453
C      -2.593940   -2.644673   -0.318899
N      -2.522776   -4.098968   -0.237117
C      -2.866989   -4.727707    1.034891
C      -3.749003   -4.895294   -0.156056
C      -5.139366   -4.298184   -0.200815
H       1.196612    1.613091    0.457061
H      -0.011264    1.714914   -0.852487
H      -0.527318    1.857749    0.847926
H      -1.983341   -0.074363    0.568108
H      -1.475422   -0.208370   -1.124988
H      -0.471391   -2.458851   -0.646411
H      -0.947658   -2.315809    1.041213
H      -3.361133   -2.209827    0.344827
H      -2.874677   -2.379747   -1.346487
H      -2.211693   -5.526910    1.372066
H      -3.241582   -4.084606    1.832243
H      -3.664386   -5.830234   -0.709713
H      -5.240368   -3.417480    0.437707
H      -5.415207   -4.011779   -1.222026
H      -5.870394   -5.038555    0.141166
