19

O      -0.038587    0.014756   -0.012002
C       0.069555    1.216016   -0.103128
C       1.331751    1.956747    0.027698
C       1.281760    3.457210    0.288847
C       1.750558    2.994728   -1.047114
C       3.210077    2.548090   -1.260408
C       3.751120    2.283408    0.170898
C       2.656131    1.182897    0.172354
C       3.029753    0.991164   -1.339380
H      -0.820908    1.859190   -0.302189
H       0.281844    3.881630    0.316759
H       1.957140    3.897585    1.010877
H       1.127981    3.167673   -1.918383
H       3.785597    3.104716   -2.000463
H       4.750287    1.845060    0.140200
H       3.735262    3.076869    0.919325
H       2.657181    0.355106    0.878411
H       2.256703    0.598074   -2.003619
H       3.971476    0.456340   -1.487073
