19

C      -0.333223    1.406268    0.020538
C       0.075546   -0.055021   -0.001238
O       0.788507   -0.272743   -1.194314
C       0.842912   -1.595887   -1.666798
C       1.583294   -2.595870   -0.801161
O       2.756955   -2.177722   -0.104436
C       1.633557   -2.603720    0.666446
C       0.954489   -1.613316    1.591341
O       0.868373   -0.285217    1.137865
H       0.564417    2.028924   -0.007305
H      -0.952003    1.637579   -0.849109
H      -0.890326    1.628275    0.933236
H      -0.807145   -0.722095    0.025416
H      -0.170554   -1.997298   -1.847205
H       1.344658   -1.537924   -2.638997
H       1.679391   -3.564904   -1.301091
H       1.763277   -3.578004    1.148248
H      -0.044411   -2.017006    1.836340
H       1.521576   -1.565572    2.527510
