20

C      -0.055439    1.559235    0.011405
C       0.010645    0.024387   -0.000379
C       0.660237   -0.510887   -1.288042
C       0.939561   -2.017068   -1.194072
C       1.815500   -2.318150   -0.001522
C       1.568926   -1.545013    1.212597
C       0.726613   -0.502104    1.219321
N       2.691184   -3.247818   -0.142898
O       3.438875   -3.462814    1.026400
H       0.950102    1.993382   -0.008510
H      -0.601517    1.931819   -0.861205
H      -0.562595    1.928946    0.908706
H      -1.026693   -0.347937    0.040238
H       0.017786   -0.296430   -2.148904
H       1.605131    0.022622   -1.454675
H      -0.013890   -2.551813   -1.076499
H       1.412570   -2.401020   -2.101090
H       2.081263   -1.854763    2.114718
H       0.541540    0.023909    2.154327
H       4.019319   -4.183078    0.760766
