15

C       0.077476    1.484546   -0.034486
C       1.334826    0.684269    0.002141
N      -0.011435    0.020413   -0.018473
C      -0.222386   -0.621478   -1.352191
C       1.039211   -0.298769   -2.096438
C       1.924979    0.405212   -1.326956
N       3.056105    0.650863   -2.030404
N       2.911545    0.131272   -3.221076
N       1.674479   -0.444129   -3.274009
H      -0.294122    1.963200    0.867661
H      -0.141203    2.015039   -0.959451
H       1.916781    0.589659    0.912647
H      -0.364354   -1.698665   -1.206117
H      -1.132312   -0.228446   -1.818891
H       1.396570   -0.909538   -4.122912
