16

C      -0.084063    1.560471    0.066561
C       1.456817    1.469667    0.002950
C       2.094588    1.266922    1.387031
C       1.410393    0.115490    2.112765
O       0.048776    0.301548    2.523337
C       0.310675   -0.552925    1.401388
C       0.045470    0.027426    0.011694
O       1.341994    0.168528   -0.648538
H      -0.550838    2.006834    0.942500
H      -0.502316    1.958397   -0.858724
H       2.009229    2.187583   -0.608629
H       3.151770    1.011016    1.254356
H       2.049582    2.187918    1.980670
H       2.011622   -0.444252    2.826984
H       0.096216   -1.606335    1.568233
H      -0.656586   -0.561525   -0.582085
