20

C       0.034763    1.581714    0.014742
C       0.016880    0.057907   -0.043374
C       0.730514   -0.493729   -1.292725
N       0.847968   -1.954612   -1.311017
C       1.431420   -2.473856   -0.084204
C       0.729611   -1.943335    1.197809
N       0.589530   -0.481636    1.205090
C      -0.598585   -2.569896    1.329436
N      -1.626952   -3.094335    1.385968
H       1.064032    1.961216    0.037621
H      -0.456240    2.010338   -0.863917
H      -0.478815    1.938214    0.911282
H      -1.027859   -0.282923   -0.072549
H       0.212000   -0.175097   -2.203841
H       1.746794   -0.073428   -1.337054
H      -0.065937   -2.373697   -1.457843
H       1.419796   -3.568022   -0.108108
H       2.480701   -2.152684   -0.033359
H       1.311918   -2.229893    2.082174
H       1.511364   -0.078487    1.353773
