21

C      -0.199634    1.473727   -0.079861
C       0.056356   -0.001024   -0.049826
C       0.529023   -0.958603   -1.159180
C       0.032445   -1.790578    0.056532
C       0.335452   -3.223825    0.389099
C       1.845083   -3.079287    0.833469
C       2.165708   -1.542721    1.086861
C       0.780532   -0.891140    1.024711
O      -1.150849   -0.899572    0.130475
H       0.741475    2.013864   -0.224135
H      -0.877557    1.731591   -0.899253
H      -0.648387    1.804916    0.861328
H      -0.118848   -1.001253   -2.035927
H       1.589596   -0.977032   -1.419226
H      -0.287314   -3.559020    1.224506
H       0.211349   -3.929926   -0.435788
H       2.027986   -3.669229    1.734972
H       2.507041   -3.478763    0.060581
H       2.651781   -1.393441    2.053818
H       2.856899   -1.171913    0.326219
H       0.286677   -0.824681    1.998082
