20

C       0.004105    1.598752    0.115811
C       0.033962    0.069892   -0.013327
C       0.849578   -0.573917    1.116984
C      -1.385073   -0.506394   -0.056409
C      -2.349458   -0.146718   -1.234998
C      -2.737312   -1.647022   -1.396901
C      -1.569057   -1.984244   -0.457549
O      -0.959700   -2.988925   -0.221568
H       1.018943    2.009917    0.102911
H      -0.556684    2.065308   -0.700535
H      -0.464906    1.901281    1.059759
H       0.518942   -0.181538   -0.967841
H       0.418451   -0.327334    2.095081
H       0.864218   -1.661862    1.018897
H       1.881572   -0.207933    1.108887
H      -1.880367   -0.336554    0.910536
H      -3.163418    0.540347   -1.001719
H      -1.805802    0.233311   -2.103939
H      -3.701750   -1.899821   -0.944137
H      -2.696816   -2.091203   -2.394484
