19

C       0.157101    1.478258    0.069899
C      -0.063906   -0.041109   -0.048965
C      -1.555873   -0.396695   -0.090667
C       0.694147   -0.585473   -1.226510
N       2.004605   -0.494211   -1.408076
C       2.197416   -1.121151   -2.604111
N       3.445123   -1.192574   -3.193513
N       1.102180   -1.602539   -3.177594
N       0.146794   -1.237005   -2.268860
H       1.224299    1.708036    0.087891
H      -0.289539    2.003792   -0.781108
H      -0.303038    1.860535    0.986525
H       0.375863   -0.508143    0.841999
H      -2.049996    0.059888   -0.956485
H      -1.716777   -1.479181   -0.130349
H      -2.058556   -0.020757    0.804508
H       4.197159   -1.175789   -2.520444
H       3.533264   -1.945036   -3.860882
H      -0.815038   -1.473551   -2.438995
