12

N      -0.005020    1.384718    0.155766
C       0.011827    0.022387    0.026685
N      -1.045028   -0.740245   -0.009323
O      -0.571089   -2.091512   -0.028519
C       0.766477   -2.033634   -0.036143
N       1.754184   -2.878600   -0.055802
N       2.894884   -2.074485   -0.024586
C       2.550795   -0.813912    0.013467
N       1.169884   -0.727325    0.001824
H       0.672583    1.878715   -0.409223
H      -0.935201    1.773534    0.072991
H       3.216747    0.031331    0.052097
