23

C      -0.245736    1.538778   -0.002805
C       0.048922    0.038689    0.022523
C       0.768842   -0.474070   -1.282978
C       1.531120   -1.698710   -0.776368
C       3.061406   -2.039611   -0.727352
C       3.302816   -0.667157   -0.056121
C       2.011970   -1.247809    0.617313
C       2.784590   -2.598473    0.718215
C       0.921630   -0.416843    1.263079
H       0.683208    2.119477   -0.049986
H      -0.852143    1.810317   -0.873911
H      -0.790281    1.855885    0.893110
H      -0.908257   -0.492297    0.090606
H       0.040723   -0.706719   -2.065409
H       1.422551    0.307415   -1.681260
H       0.886250   -2.585844   -0.764514
H       3.673351   -2.517671   -1.494437
H       4.183577   -0.589356    0.588127
H       3.201310    0.224705   -0.675569
H       2.175721   -3.505023    0.784453
H       3.646390   -2.641653    1.390378
H       1.318826    0.442968    1.813316
H       0.314696   -0.997796    1.964941
