18

C      -0.247822   -1.116559    0.099356
C      -0.119272    0.077306    0.060700
C       0.053493    1.526423   -0.019271
C       1.561618    1.910348   -0.028461
C       2.261771    1.531068    1.195464
N       2.807144    1.245927    2.173260
C      -0.639155    2.106733   -1.246148
C      -2.107204    2.427870   -1.199939
C      -1.093200    3.545339   -1.239035
H      -0.365049   -2.170869    0.152195
H      -0.395669    1.982301    0.873028
H       2.054735    1.433921   -0.882224
H       1.649239    2.993523   -0.163162
H      -0.258569    1.717491   -2.186503
H      -2.700896    2.235444   -2.086047
H      -2.633216    2.253418   -0.267276
H      -0.943683    4.121243   -0.331035
H      -0.990598    4.122270   -2.151081
