18

C      -0.079370    1.425634    0.054915
C       1.298863    2.101532   -0.068261
C       2.090812    1.556724   -1.221071
C       2.797024    0.421180   -1.173799
C       3.001144   -0.435459   -0.002159
C       2.148969   -0.799306    0.965074
C       0.662927   -0.583184    1.115385
O      -0.018352    0.014550    0.037499
H      -0.584083    1.779172    0.969048
H      -0.708977    1.693973   -0.799622
H       1.141903    3.181375   -0.171634
H       1.852834    1.943208    0.865001
H       2.058323    2.111450   -2.155681
H       3.359563    0.129625   -2.059299
H       4.013966   -0.829312    0.084511
H       2.548353   -1.413826    1.772536
H       0.203127   -1.573374    1.246659
H       0.468324   -0.037672    2.056525
