12

C      -0.004785    1.458704    0.010100
C       0.002277    0.005988    0.002422
C       0.018529   -1.198921   -0.004002
C       0.003804   -2.610342   -0.011284
N       1.090884   -3.354159   -0.022321
O       0.656074   -4.643952   -0.026225
N      -0.710060   -4.720690   -0.017660
C      -1.125650   -3.488490   -0.008469
H       1.016171    1.853964    0.002459
H      -0.526334    1.854465   -0.868017
H      -0.509472    1.845179    0.902099
H      -2.176208   -3.245577   -0.000306
