18

C       0.054898    1.488337   -0.161212
C       1.301882    0.703233   -0.000309
C       1.973628    0.621480    1.365136
O       1.179482    1.226662    2.364784
C      -0.076133    0.547572    2.512091
C      -0.200874   -0.507215    1.409422
C       0.963385   -1.490298    1.601282
O       2.194164   -0.747737    1.657110
N      -0.015447    0.033224    0.044243
H      -0.220791    2.174277    0.631570
H      -0.250566    1.794892   -1.157154
H       1.934511    0.465883   -0.852937
H       2.948830    1.108681    1.403666
H      -0.118593    0.068923    3.500220
H      -0.884569    1.286329    2.463870
H      -1.164128   -1.021645    1.471910
H       0.858447   -2.043737    2.541580
H       1.000197   -2.203478    0.769109
