21

C      -0.089789    1.632801   -0.109058
C      -0.056745    0.161008    0.317064
C      -1.355121   -0.556330    0.006352
O      -1.583465   -0.666718   -1.448409
C      -1.680470   -2.030995   -1.383046
O      -1.867796   -2.791545   -2.279277
C      -1.478239   -2.105117    0.137232
C      -0.242467   -2.897591    0.564004
C      -2.730826   -2.581113    0.877973
H       0.860750    2.125953    0.113011
H      -0.275967    1.718525   -1.183262
H      -0.881830    2.179587    0.414162
H       0.772260   -0.350770   -0.183042
H       0.126373    0.083142    1.396637
H      -2.204044   -0.024324    0.450035
H       0.656058   -2.598926    0.018917
H      -0.052070   -2.772784    1.635170
H      -0.405994   -3.962076    0.371887
H      -2.914611   -3.639790    0.672497
H      -2.605864   -2.460593    1.959489
H      -3.618898   -2.019763    0.571918
