23

C       0.690875    1.748480   -0.282547
C       0.049913    0.368904   -0.031752
C       0.280244   -0.579346   -1.225502
C       0.538592   -0.222736    1.214692
C       0.961584   -0.705015    2.236407
C       1.447829   -1.313607    3.458106
C       0.432192   -1.994881    4.434445
C       1.487057   -3.100931    4.698500
C       2.202341   -2.682713    3.387254
H       1.774601    1.652750   -0.402195
H       0.283082    2.198338   -1.193749
H       0.501963    2.427276    0.553232
H      -1.034610    0.519147    0.068934
H       1.350056   -0.754349   -1.376577
H      -0.199947   -1.546922   -1.057335
H      -0.129384   -0.143712   -2.142744
H       2.058213   -0.595468    4.018141
H       0.078360   -1.400665    5.279809
H      -0.430863   -2.378488    3.884609
H       2.095030   -2.879316    5.580593
H       1.131387   -4.130539    4.773581
H       1.857244   -3.267626    2.531011
H       3.294036   -2.650277    3.377509
