21

O      -0.006136   -0.063143    0.238010
C      -0.000121    1.131955    0.042370
C      -1.287607    1.940236   -0.031785
C      -1.744582    2.307391    1.403493
C      -0.781401    3.180563    2.227847
C       0.605412    2.553091    2.492787
C       1.557268    2.693544    1.316733
C       2.436148    1.558952    0.844526
C       1.252637    1.962490    0.018526
H      -1.137963    2.853028   -0.619496
H      -2.062118    1.333432   -0.509406
H      -2.708901    2.822312    1.328497
H      -1.930710    1.371468    1.944618
H      -0.650485    4.155056    1.737692
H      -1.266910    3.387676    3.188798
H       1.059326    3.025252    3.371719
H       0.479233    1.493935    2.748291
H       1.960558    3.695691    1.193151
H       3.428673    1.792218    0.475453
H       2.356027    0.607776    1.360392
H       1.404575    2.525139   -0.898571
