25

C      -0.074603    1.524749    0.006520
C       0.012357   -0.010617    0.005429
C      -1.424391   -0.537230   -0.147154
C       1.024428   -0.596257   -1.028206
C       2.377928   -0.030086   -0.535779
C       2.216514   -0.040588    1.020550
C       0.791435   -0.611113    1.217100
C       0.856130   -2.116847    0.865658
C       1.017750   -2.106552   -0.690676
H       0.890974    2.021512    0.109417
H      -0.529673    1.881441   -0.924580
H      -0.710731    1.869947    0.829590
H      -1.869421   -0.166680   -1.077695
H      -1.496422   -1.625507   -0.161268
H      -2.051766   -0.177387    0.676361
H       0.807211   -0.375755   -2.076776
H       3.215461   -0.647415   -0.873428
H       2.556953    0.979752   -0.914458
H       2.967705   -0.663590    1.514666
H       2.312700    0.963856    1.441317
H       0.363277   -0.404035    2.201530
H       1.693052   -2.608846    1.369706
H      -0.051281   -2.644093    1.171997
H       0.193345   -2.628536   -1.183736
H       1.941045   -2.593029   -1.018446
