14

N       0.028398    1.418910    0.166151
C       0.037514    0.028014    0.048975
C      -1.089520   -0.793405    0.017670
N      -0.629405   -2.106801   -0.020230
C       0.728720   -2.118802   -0.025023
C       1.179207   -0.814680    0.018943
C      -2.448114   -0.449366    0.020066
C      -3.613757   -0.130981    0.009899
H       0.775169    1.870649   -0.344132
H      -0.863830    1.825435   -0.084988
H      -1.230094   -2.910951   -0.049313
H       1.278077   -3.046064   -0.057191
H       2.210741   -0.498328    0.038545
H      -4.638035    0.146368    0.023047
