17

C       0.196120    1.497195    0.097265
C       0.048600   -0.008582    0.303380
O       0.054194   -0.344555    1.692468
C      -1.199219   -0.568293   -0.398731
C      -1.334008   -2.053963   -0.291011
C      -0.985404   -2.936290    0.684449
O      -1.315212   -4.167075    0.299663
N      -1.906678   -4.036631   -0.992965
N      -1.899178   -2.816388   -1.295827
H       1.076820    1.865595    0.629416
H       0.301509    1.743765   -0.963713
H      -0.684148    2.030915    0.477431
H       0.931657   -0.518429   -0.098818
H      -0.642209    0.166945    2.120499
H      -2.088864   -0.073492    0.018865
H      -1.177586   -0.303388   -1.460945
H      -0.512672   -2.811517    1.642734
