20

C      -0.175492   -2.231626    2.635163
N      -0.224107   -1.536484    1.354987
C      -1.171854   -0.444989    1.172596
C       0.299103   -0.189979    1.171675
C       1.002160    0.702044    2.212327
C       2.412935    0.174917    2.509394
O       1.206178    1.981183    1.593544
C       0.245876    0.894518    3.459614
C      -0.356036    1.128569    4.474587
H      -0.339953   -1.595845    3.514025
H      -0.943260   -3.012029    2.625951
H       0.796615   -2.725278    2.737181
H      -1.737562   -0.450276    0.243663
H      -1.723175   -0.098601    2.045763
H       0.800204   -0.054352    0.213549
H       2.959984    0.064063    1.569311
H       2.945519    0.885151    3.145509
H       2.368757   -0.792652    3.012738
H       0.336922    2.370048    1.442652
H      -0.888862    1.323996    5.372742
