16

C       0.006791    1.445024   -0.032087
C      -0.079564   -0.045309   -0.028398
C       0.015550   -1.042204    1.063967
C      -0.521369   -2.112105    0.077143
C       0.875958   -2.084429   -0.637169
N       1.205882   -0.849575    0.176774
C       0.164555   -1.579796   -1.904324
O       0.268020   -1.764573   -3.079603
C      -0.889523   -0.966589   -0.966362
H       0.717267    1.780086    0.728981
H       0.353191    1.814176   -1.003518
H      -0.967917    1.897562    0.178391
H       0.058815   -0.951438    2.142558
H      -1.138723   -2.988574    0.246820
H       1.640617   -2.856795   -0.624611
H      -1.896395   -0.692646   -1.269426
