21

C      -0.069042    1.563240   -0.122125
C      -0.012056    0.029481    0.010535
C       0.662059   -0.543134   -1.224485
O       0.086955   -1.128358   -2.106845
C       0.739247   -0.451501    1.279665
O       2.071557    0.058617    1.325692
C      -0.027340   -0.165707    2.574321
C       0.632716   -0.788550    3.799602
O      -0.131415   -0.410177    4.934422
H       0.933378    1.993247   -0.224490
H      -0.639632    1.847240   -1.010482
H      -0.553379    2.021824    0.744765
H      -1.030625   -0.372631    0.030175
H       1.760498   -0.371856   -1.263461
H       0.874272   -1.537929    1.193171
H       2.021343    0.996042    1.542441
H      -0.107604    0.916761    2.738650
H      -1.051800   -0.545607    2.489176
H       0.664014   -1.884489    3.684255
H       1.672227   -0.439158    3.874640
H       0.292371   -0.774593    5.716841
