18

O       0.040075    1.404068   -0.101929
C       0.021483   -0.013685   -0.003545
C       0.687149   -0.508427    1.285743
N      -0.150307   -0.297589    2.467680
C      -1.399953   -0.207118    2.297557
O      -2.120802   -0.270134    1.148756
C      -1.388523   -0.562063   -0.038935
C      -2.214620   -0.562565   -1.277916
C      -1.707147   -1.872659   -0.701850
H      -0.298601    1.765087    0.725002
H       0.567715   -0.374702   -0.880579
H       0.924590   -1.576960    1.204551
H       1.634456    0.019892    1.433476
H      -2.068990   -0.033942    3.138446
H      -3.270059   -0.345912   -1.160031
H      -1.764696   -0.173899   -2.184422
H      -0.907913   -2.397550   -1.215154
H      -2.428992   -2.510381   -0.205092
