17

O      -0.161611   -0.096880   -0.033097
C      -0.052516    1.096851    0.047902
C       1.269513    1.862233   -0.013302
C       2.485026    0.916611   -0.240728
C       2.864766    1.152152   -1.680843
C       2.199505    2.164291   -2.228126
C       1.246219    2.818225   -1.259110
C       1.428862    2.673815    1.260005
O       0.671459    2.655383    2.194978
H      -0.942536    1.752099    0.153875
H       3.319350    1.149872    0.434988
H       2.186039   -0.116264   -0.038179
H       3.612747    0.548368   -2.181924
H       2.314812    2.522150   -3.244714
H       0.229596    2.930326   -1.657543
H       1.575976    3.833225   -0.994440
H       2.341258    3.314867    1.264699
