12

N      -0.031039    1.194841   -0.302121
C       0.020392   -0.008129    0.002472
O       1.014402   -0.828226    0.469842
C       0.146920   -1.992519    0.516174
C      -1.050383   -1.132418   -0.015882
C      -2.144923   -0.942238    0.930623
N      -2.985206   -0.803925    1.709863
C      -1.528126   -1.492554   -1.347088
N      -1.870613   -1.798389   -2.406139
H       0.857708    1.680559   -0.178773
H       0.483236   -2.774374   -0.165096
H       0.023173   -2.364002    1.533631
