19

N       0.010608   -1.168367   -0.333195
C       0.001360   -0.025239   -0.168360
C      -0.022463    1.424357    0.065776
N       1.322402    1.964974    0.155691
C       2.092269    1.555167    1.373923
C       2.516778    2.943320    1.884303
C       1.168070    3.722258    1.800729
C       1.376922    3.440833    0.280966
C       2.887517    3.650476    0.544326
H      -0.535753    1.895314   -0.781103
H      -0.650982    1.603848    0.958821
H       1.463774    1.021279    2.097661
H       2.934263    0.909529    1.107321
H       3.159633    2.974473    2.763185
H       0.291093    3.300101    2.299996
H       1.272623    4.778350    2.055671
H       0.832053    3.956125   -0.510643
H       3.153249    4.699810    0.680859
H       3.582583    3.150961   -0.133955
