16

C      -0.006566    1.550990    0.004828
C       0.101207    0.051072    0.039188
N      -0.794804   -0.762273    0.905174
C       0.656468   -0.770001    1.153989
C       1.346690   -1.997339    0.560154
O       0.463628   -2.880456   -0.115242
C       1.215007   -1.951805   -0.909523
C       0.490277   -0.658157   -1.256052
O       0.409991   -0.178967   -2.358480
H       0.902319    2.003745   -0.402570
H      -0.840683    1.860426   -0.632408
H      -0.169173    1.951082    1.010830
H      -1.237065   -0.123764    1.566168
H       1.060025   -0.314937    2.051897
H       2.195060   -2.451763    1.063503
H       1.910397   -2.376147   -1.627984
