14

N      -0.105412    1.247854   -0.508826
C      -0.035013    0.070592   -0.103674
O       1.035957   -0.694513    0.311581
C       0.192341   -1.824719    0.626726
C       0.179308   -2.179069    2.099257
O       0.804230   -1.596984    2.941172
C      -1.063116   -1.048649    0.092807
C      -2.175906   -0.815084    0.987206
C      -3.095853   -0.634621    1.737873
H       0.806972    1.706157   -0.513212
H       0.461157   -2.706102    0.033240
H      -0.472312   -3.050318    2.332574
H      -1.407827   -1.440527   -0.868666
H      -3.905782   -0.458137    2.402379
