16

O      -0.637557    0.911447   -0.728118
C       0.102276    1.081159    0.204501
C       1.392441    1.884937    0.178570
C       1.483312    2.807024   -1.020901
C       1.933968    4.013664   -0.611961
C       0.840842    4.990082   -0.172901
N       1.070849    4.417191    1.237925
C       1.525511    2.933139    1.318439
C       2.432663    3.975901    0.836421
H      -0.113519    0.629775    1.200158
H       2.194168    1.142026    0.337988
H       0.724762    2.707686   -1.790428
H       1.097773    6.050879   -0.101084
H      -0.156781    4.857272   -0.598689
H       1.494620    2.622130    2.358906
H       3.343314    4.370139    1.272744
