17

C      -0.447491    1.540549   -0.019638
C       0.119765    0.138528   -0.072237
O       1.194333    0.079172   -1.026794
C       2.126695   -0.830553   -0.612384
N       3.168344   -1.179481   -1.236262
N       1.730535   -1.333368    0.622417
C       0.763751   -0.422415    1.229841
C       1.374815    0.583959    2.102045
C       1.896443    1.381505    2.834803
H       0.315940    2.256487    0.291647
H      -0.822021    1.825700   -1.005981
H      -1.279110    1.585031    0.690258
H      -0.650318   -0.576775   -0.389005
H       3.214210   -0.711055   -2.138238
H       2.477799   -1.698949    1.193771
H       0.012865   -0.980992    1.799105
H       2.359938    2.088148    3.478769
