19

C       0.166277    1.582029    0.027277
C       0.041946    0.053973    0.014433
O      -1.292096   -0.363325    0.230520
C       0.631178   -0.584043   -1.271213
C       0.596613   -2.121894   -1.192277
C      -0.149513   -0.125903   -2.502865
N       0.586447    0.105972   -3.621388
O      -1.368129    0.005222   -2.503119
H       1.212294    1.900490   -0.049970
H      -0.394390    2.028467   -0.800358
H      -0.245003    1.973388    0.961307
H       0.618979   -0.347168    0.858510
H      -1.752692   -0.194859   -0.608463
H       1.673665   -0.254123   -1.368124
H       1.209479   -2.468197   -0.354390
H      -0.427669   -2.461092   -1.026592
H       0.979070   -2.582393   -2.108293
H       1.584559   -0.003584   -3.640532
H       0.105659    0.357113   -4.470309
