22

C      -0.018322    1.376189    0.044113
O      -0.027518   -0.041303    0.060863
C      -1.293746   -0.599415    0.064358
C      -1.149259   -2.110236   -0.092580
N      -2.460474   -2.743131   -0.000218
C      -2.391060   -4.177355   -0.213043
C      -3.116643   -2.398932    1.255822
C      -3.215265   -0.881485    1.379588
O      -1.931945   -0.284282    1.292858
H       1.027615    1.683867   -0.016841
H      -0.558131    1.766226   -0.831878
H      -0.469390    1.791843    0.951259
H      -1.910269   -0.193542   -0.763021
H      -0.710415   -2.329563   -1.071000
H      -0.445879   -2.464480    0.684579
H      -1.791010   -4.703374    0.554249
H      -3.400003   -4.602511   -0.201866
H      -1.944452   -4.385353   -1.190690
H      -4.121918   -2.836163    1.264276
H      -2.568854   -2.798770    2.132178
H      -3.874165   -0.491877    0.586786
H      -3.628707   -0.594338    2.350080
