18

C      -0.350543    1.316507    0.662154
N       0.032867    0.108041   -0.063609
C      -1.149307   -0.745404   -0.369046
C      -1.154298   -1.781495    0.722757
C      -1.894117   -2.738577    1.331360
O      -1.157390   -3.321643    2.325907
C       0.071060   -2.719455    2.337693
C       0.117748   -1.769117    1.374150
C       0.984675   -0.724639    0.723729
H       0.538154    1.926345    0.850575
H      -1.032154    1.911065    0.046447
H      -0.845142    1.121365    1.631718
H      -2.053142   -0.131924   -0.417095
H      -1.021467   -1.213138   -1.354756
H      -2.894605   -3.120217    1.214352
H       0.756542   -3.084689    3.084041
H       1.716918   -1.186491    0.047524
H       1.542384   -0.096936    1.424112
