18

C      -0.015049    1.524623   -0.121590
C       1.306987    0.812673    0.021067
C      -0.008908    0.012543   -0.034502
C       0.315162   -0.714870   -1.321009
C       0.063201   -1.714089   -2.481965
C       1.490317   -1.130271   -2.776802
C       1.841042   -1.062260   -1.275628
N       2.119220    0.436290   -1.180821
C       1.070546    0.264751   -2.256384
H      -0.358507    2.064599    0.756041
H      -0.285072    2.005755   -1.054590
H       1.874968    0.919371    0.937163
H      -0.400411   -0.502803    0.833417
H       0.011227   -2.775854   -2.223692
H      -0.723699   -1.454503   -3.196102
H       2.151211   -1.354946   -3.612527
H       2.337487   -1.798682   -0.641581
H       0.664267    1.093365   -2.836600
