18

C       0.210035    1.418922   -0.018211
C       0.071382   -0.028634    0.022945
C      -0.036245   -1.227924    0.069084
C      -0.149087   -2.657278    0.086099
N      -0.708143   -3.310810    1.276421
C      -1.509886   -3.350093    0.051035
C      -2.797994   -2.564756    0.023010
C      -1.481900   -4.642237   -0.698716
O      -0.669939   -5.514228   -0.489485
H       1.261715    1.712625   -0.106389
H      -0.327108    1.847222   -0.871716
H      -0.188700    1.879798    0.891985
H       0.640801   -3.195989   -0.433220
H      -0.257835   -4.223097    1.372737
H      -2.645069   -1.568388    0.439972
H      -3.162743   -2.455121   -1.004247
H      -3.572536   -3.069179    0.609834
H      -2.265595   -4.758252   -1.477238
