18

C       0.202657    1.506576    0.074334
C      -0.111343    0.013202   -0.091590
C       0.626705   -0.592193   -1.243910
O       0.335685   -0.112214   -2.553442
C       0.508972   -1.451724   -3.100845
C       0.916608   -1.987671   -1.735356
C       2.054313   -1.123560   -1.184264
C       3.109335   -0.619198   -2.018243
N       3.955855   -0.217401   -2.696757
H       1.264162    1.664968    0.288059
H      -0.041463    2.054387   -0.839758
H      -0.378426    1.934203    0.895854
H       0.147163   -0.538225    0.819765
H      -1.185997   -0.127829   -0.257447
H      -0.449709   -1.846097   -3.451038
H       1.251632   -1.478790   -3.903969
H       0.694832   -2.961843   -1.321145
H       2.369907   -1.419464   -0.188152
