20

C      -0.590433    1.552633   -0.186562
C      -0.260621    0.072049   -0.252526
O      -1.429868   -0.656218    0.116186
C      -1.292113   -2.071985    0.120010
C      -2.517682   -2.582966    0.880295
O      -3.725025   -2.063150    0.332088
C      -1.133644   -2.606063   -1.323109
N      -2.291720   -2.781245   -2.007217
O      -0.028147   -2.808888   -1.794849
H       0.290482    2.146174   -0.448037
H      -1.393362    1.801533   -0.886658
H      -0.911881    1.834383    0.820395
H       0.067881   -0.216838   -1.258520
H       0.557014   -0.179824    0.440449
H      -0.375176   -2.370389    0.647225
H      -2.580667   -3.673253    0.824359
H      -2.420325   -2.294602    1.935980
H      -3.588402   -1.107470    0.283743
H      -3.179863   -2.590136   -1.564506
H      -2.241380   -3.090076   -2.964223
