20

O      -0.131752    1.439979    0.118531
C      -0.015621    0.019884    0.041646
C      -1.434441   -0.534678   -0.035846
O      -2.159148   -0.080211    1.109662
C      -2.190467   -0.144422   -1.326701
C      -3.309719   -1.190786   -1.397023
C      -2.586203   -2.501374   -1.028270
C      -1.483214   -2.081613   -0.019023
H       0.708700    1.803772    0.409292
H       0.564656   -0.284812   -0.842323
H       0.479278   -0.381656    0.937704
H      -1.963963    0.863671    1.175736
H      -2.541563    0.889758   -1.296190
H      -1.523281   -0.245431   -2.193095
H      -4.067150   -0.953788   -0.642897
H      -3.806132   -1.234422   -2.370391
H      -3.261909   -3.256132   -0.617568
H      -2.130311   -2.937703   -1.924157
H      -0.511521   -2.507779   -0.289232
H      -1.707168   -2.401278    1.001090
