18

C       0.188215    1.551457   -0.003086
C       0.017768    0.065565   -0.054548
C      -1.071018   -0.705859   -0.005840
C      -2.527299   -0.391330    0.119905
O      -2.774815    1.003176    0.105851
C      -0.662710   -2.157180   -0.099389
O       0.753710   -2.160739   -0.189868
C       1.231273   -0.822573   -0.185510
H       0.838843    1.833594    0.835117
H       0.684384    1.913619   -0.913125
H      -0.765302    2.063218    0.103458
H      -3.065385   -0.894617   -0.703948
H      -2.906117   -0.850192    1.051315
H      -3.719528    1.137798    0.221147
H      -0.982595   -2.740030    0.781239
H      -1.099171   -2.654105   -0.983110
H       1.790862   -0.617082   -1.113876
H       1.937638   -0.679267    0.649238
