16

C       0.093621    1.378677    0.053398
C       0.026260   -0.100888   -0.060777
N      -0.099289   -0.815532   -1.142943
C      -0.105818   -2.116604   -0.688614
O      -0.220924   -3.158162   -1.534943
C       0.013640   -2.154326    0.665716
C       0.087932   -3.232008    1.678798
O       1.380414   -3.405568    2.257202
O       0.100934   -0.828134    1.067580
H       1.034716    1.693152    0.516106
H       0.020172    1.817775   -0.941610
H      -0.722058    1.761208    0.675522
H      -0.309021   -2.786543   -2.420940
H      -0.573468   -3.013184    2.523631
H      -0.272719   -4.156432    1.204853
H       1.999066   -3.548104    1.532853
