14

N      -0.371094    1.291476    0.119233
C      -0.032774   -0.000545   -0.061979
O       1.075084   -0.399662   -0.366372
C      -1.185415   -1.045626    0.065146
O      -0.635701   -2.328726    0.017952
C      -1.983437   -0.813967    1.266763
C      -2.657106   -0.569800    2.240109
C      -3.450566   -0.299187    3.411505
O      -3.952794    0.774603    3.654295
H       0.355974    1.987925    0.080330
H      -1.254622    1.537664    0.534943
H      -1.844903   -0.871804   -0.804836
H       0.305634   -2.176491   -0.185434
H      -3.568995   -1.166290    4.090822
