19

C      -0.042336   -1.233288   -0.013342
C      -0.016357   -0.032356   -0.039855
C       0.013389    1.424227   -0.047757
C       1.439475    2.008549    0.004838
O       2.092763    1.599605   -1.182845
C       3.312343    2.284181   -1.413827
C       3.064507    3.771969   -1.672178
C       2.131074    4.315558   -0.622974
C       1.412589    3.509660    0.155241
H      -0.064660   -2.294511   -0.000356
H      -0.475777    1.809986   -0.949917
H      -0.550819    1.808162    0.811071
H       1.952021    1.566530    0.879500
H       3.986743    2.164181   -0.550281
H       3.776714    1.796078   -2.274971
H       4.016754    4.317326   -1.658029
H       2.639795    3.918988   -2.674528
H       2.068646    5.393969   -0.502662
H       0.774060    3.907200    0.940272
