21

C      -0.155518    1.450805   -0.069775
C       0.139389   -0.054565   -0.022465
C       0.846430   -0.549329   -1.286941
O       2.041432    0.195384   -1.500910
N       0.836633   -0.452479    1.205987
C       2.131360    0.122786    1.543585
C       0.153547   -1.255325    2.095115
N       0.816707   -1.518303    3.287981
O      -0.973546   -1.684874    1.894222
H       0.758152    2.047403   -0.125678
H      -0.755234    1.686969   -0.954722
H      -0.720687    1.752623    0.816012
H      -0.809238   -0.593088    0.028135
H       1.061644   -1.622141   -1.177742
H       0.156499   -0.427460   -2.136777
H       2.478377   -0.151107   -2.283674
H       2.090398    0.701389    2.474514
H       2.904672   -0.651239    1.651013
H       2.455325    0.770090    0.732442
H       1.823554   -1.534391    3.302301
H       0.377276   -2.266540    3.801157
