21

C       0.119237    1.642168    0.213894
C       0.004712    0.117407    0.078937
C      -1.433174   -0.451062    0.015188
C      -1.472142   -1.997015   -0.036574
C      -2.654029   -2.372352    0.891779
O      -3.281418   -1.148859    1.273759
C      -2.274470   -0.157810    1.274021
C      -2.156535    0.141305   -1.195631
O      -2.350149   -0.428332   -2.237612
H       1.169458    1.933173    0.309862
H      -0.284900    2.167411   -0.656617
H      -0.405660    2.011812    1.100898
H       0.548895   -0.212802   -0.813693
H       0.501707   -0.356331    0.934593
H      -1.624981   -2.331381   -1.063981
H      -0.532911   -2.422729    0.325713
H      -3.412245   -2.990273    0.404359
H      -2.296431   -2.907003    1.784429
H      -1.640044   -0.220589    2.175551
H      -2.765500    0.820406    1.268672
H      -2.500688    1.191050   -1.055238
