21

C       0.064257    1.613293   -0.053799
C       1.571164    1.286153   -0.094447
C       2.361664    1.288844    1.235154
C       1.684759    1.807140    2.520337
C       0.324628    1.192753    2.980638
C      -0.016878   -0.209889    2.526265
C      -0.250836   -0.647785    1.286643
C      -0.111818    0.080002   -0.025113
O       1.257023   -0.070648   -0.522005
H      -0.335904    2.226819    0.748817
H      -0.276063    2.014106   -1.010445
H       2.143662    1.796460   -0.875672
H       2.693559    0.256781    1.383814
H       3.272129    1.885488    1.103294
H       2.415690    1.664625    3.324580
H       1.547043    2.892410    2.442392
H       0.312805    1.207998    4.074824
H      -0.488921    1.862873    2.685344
H      -0.098523   -0.946833    3.323000
H      -0.486267   -1.703986    1.167387
H      -0.826859   -0.322943   -0.750408
