18

C      -0.103113    1.600009    0.100920
C      -0.035230    0.063742   -0.023085
C      -1.374226   -0.517382    0.039105
C      -2.478124   -0.989059    0.089015
C       0.692213   -0.417788   -1.314553
O       0.106341    0.080881   -2.494358
C       2.208535   -0.108914   -1.255013
C       2.929671   -0.650862   -2.403496
N       3.508612   -1.083893   -3.304385
H       0.894159    2.050000    0.118915
H      -0.674602    2.031474   -0.726063
H      -0.611801    1.877985    1.026343
H       0.542094   -0.323615    0.828264
H      -3.451573   -1.411628    0.130234
H       0.570119   -1.502951   -1.376766
H       0.224639    1.036507   -2.524965
H       2.376872    0.974044   -1.219811
H       2.641677   -0.526874   -0.339081
