17

O      -0.251812   -0.080312   -0.326117
C      -0.104930    1.076248   -0.100567
N      -1.049576    2.155488    0.047058
C      -0.041300    2.932364    0.797805
C       0.974696    4.132672    0.704975
N       2.051050    3.030132    0.921911
C       1.716416    2.614517    2.312816
C       0.164163    2.519009    2.277574
C       1.033656    2.193725    0.075481
H      -1.990245    1.964785    0.376655
H       1.082623    4.583203   -0.280001
H       0.968095    4.889409    1.494726
H       2.197390    1.659441    2.532426
H       2.098761    3.362571    3.012088
H      -0.338703    3.198473    2.971779
H      -0.199429    1.505421    2.470778
H       1.172784    2.559375   -0.944719
