19

C       0.601521    1.968783    0.349422
C       0.007257    0.590117    0.525259
C       0.533798   -0.592638   -0.210220
C       0.732860   -0.530993    1.296123
C       2.107169   -0.319085    1.811953
O       3.014508    0.169898    1.165212
C       2.379713   -0.725049    3.238761
C       1.484971   -0.294800    4.333069
O       1.485097   -1.639645    3.878192
H       1.683120    1.919217    0.212961
H       0.164696    2.454599   -0.529947
H       0.393498    2.604487    1.217066
H      -1.063923    0.585447    0.711801
H      -0.154021   -1.340292   -0.588568
H       1.437922   -0.449930   -0.793055
H       0.111581   -1.166581    1.914601
H       3.436516   -0.866986    3.456384
H       1.909987   -0.128188    5.321305
H       0.590706    0.280663    4.099745
