19

O      -0.088584    1.397043   -0.009017
C       0.024046   -0.011810   -0.011424
C       0.266881   -0.605213    1.418879
C      -1.287026   -0.602990    1.575528
C      -1.411635   -0.608202    0.017381
C      -1.501888   -1.988064   -0.573208
C      -0.680347   -3.012675   -0.293934
C       0.451187   -3.006634    0.635212
C       0.872833   -1.980030    1.391970
H       0.771475    1.762151    0.224064
H       0.691755   -0.367129   -0.805355
H       0.818817    0.052243    2.095696
H      -1.736617   -1.434681    2.119024
H      -1.629928    0.348665    1.981362
H      -2.166393    0.055196   -0.407065
H      -2.306504   -2.157609   -1.283304
H      -0.863387   -3.958793   -0.796961
H       0.990919   -3.946834    0.715663
H       1.729923   -2.144220    2.039546
