19

O      -0.039345    1.403631    0.060443
C      -0.015541    0.005787   -0.092676
C      -1.405233   -0.597190   -0.070943
C      -1.546781   -2.132845   -0.043691
C      -3.025124   -2.284865   -0.513931
C      -3.419489   -0.801406   -0.689381
C      -3.505298   -0.130197    0.694536
O      -2.118707   -0.070399    1.069552
O      -2.203191   -0.214507   -1.175394
H      -0.709418    1.578542    0.733463
H       0.452448   -0.221361   -1.055651
H       0.577542   -0.486216    0.695865
H      -0.844930   -2.603290   -0.737547
H      -1.365810   -2.526795    0.957612
H      -3.092401   -2.811941   -1.467746
H      -3.657690   -2.805051    0.209488
H      -4.243959   -0.591493   -1.368976
H      -3.919782    0.882628    0.639350
H      -4.070318   -0.715010    1.428275
