21

C       0.053148    1.522405    0.116765
C      -0.095035   -0.001535    0.083824
C      -1.541536   -0.528825   -0.095385
C      -2.113812   -0.174825   -1.469960
C      -1.573054   -2.063190    0.166501
N      -1.804336   -2.124095    1.600540
C      -2.465407   -0.981778    2.040608
O      -2.967369   -0.807866    3.128330
N      -2.431830   -0.084616    0.982266
H       1.098745    1.798873    0.280982
H      -0.264692    1.991677   -0.819547
H      -0.526348    1.967756    0.932507
H       0.517095   -0.409264   -0.730705
H       0.301754   -0.422761    1.014688
H      -1.499018   -0.606464   -2.267198
H      -3.133222   -0.556552   -1.568053
H      -2.144663    0.907819   -1.623537
H      -2.383545   -2.533960   -0.408590
H      -0.628283   -2.537674   -0.115702
H      -2.051752   -2.990388    2.051636
H      -2.535817    0.892092    1.206615
