11

O      -0.154573    1.262720    0.010463
N       1.231720    1.813257   -0.000022
N       2.044544    0.875244   -0.012935
C       1.377760   -0.338427   -0.013056
C       0.009561   -0.051325    0.001729
N      -0.955084   -0.959220    0.006161
C      -0.472276   -2.205094   -0.005242
N       0.811715   -2.609258   -0.019864
C       1.758413   -1.673399   -0.023965
H      -1.213890   -2.998856   -0.002379
H       2.797349   -1.990526   -0.035732
