22

C      -0.603163    1.287305    0.160139
C       0.050129   -0.083908    0.013126
C       1.169417   -0.155765   -1.030588
O       1.857461   -1.370265   -0.765650
C       1.724203   -1.689081    0.618167
C       0.779324   -0.648045    1.255412
N       1.558011    0.391990    1.926604
C       0.941172    1.046372    3.074428
C       2.049537    0.071644    3.262314
H       0.131959    2.044128    0.445322
H      -1.059846    1.597149   -0.785798
H      -1.393690    1.277565    0.917579
H      -0.713371   -0.821125   -0.267422
H       0.801618   -0.191139   -2.061061
H       1.842139    0.709864   -0.927318
H       1.315776   -2.704269    0.703655
H       2.705924   -1.671618    1.107603
H       0.075616   -1.130921    1.954983
H       1.118771    2.113921    3.167313
H      -0.056251    0.724431    3.370676
H       1.788842   -0.897886    3.685152
H       3.054683    0.412062    3.493481
