20

C      -0.056235    1.523364    0.128908
C       0.162444    0.036301   -0.092296
O       0.720023   -0.499993    1.107973
C       0.755568   -1.889474    1.237016
C       1.506368   -2.601272    0.119934
C       1.238604   -2.194548    2.678295
N       0.051705   -2.657919    3.409666
C      -0.869783   -2.728342    2.544479
O      -0.613398   -2.406892    1.251814
H       0.887702    2.019140    0.372888
H      -0.466438    1.984259   -0.774662
H      -0.753889    1.690416    0.954066
H      -0.784763   -0.467557   -0.319028
H       0.846188   -0.127289   -0.937122
H       2.525423   -2.209607    0.051792
H       1.553755   -3.672728    0.327559
H       1.011270   -2.465543   -0.844213
H       2.014581   -2.966846    2.702381
H       1.643136   -1.285803    3.130715
H      -1.889191   -3.046222    2.735408
