20

C       0.003869    1.571007    0.001991
C       0.067609    0.051102    0.036237
O      -1.235458   -0.497118   -0.140172
C       1.091536   -0.708061   -0.818738
C       1.226485   -1.770845    0.197002
N       2.386062   -0.874736   -0.068848
C       2.149431   -0.210510    1.257481
C       0.696091   -0.711312    1.253129
C      -0.110708   -0.942683    2.501295
H       0.985386    2.034083    0.126462
H      -0.391556    1.907583   -0.964655
H      -0.666056    1.944016    0.783157
H      -1.561058   -0.221037   -1.003264
H       1.149526   -0.774917   -1.898896
H       1.255577   -2.850596    0.142607
H       2.766981   -0.718781    2.003816
H       2.347354    0.866473    1.297695
H      -0.266093   -0.002271    3.043674
H      -1.093111   -1.355162    2.257488
H       0.400453   -1.634557    3.178986
