19

C       0.715838    1.843960    1.892398
C       0.150373    0.507455    1.487095
O       0.421362    0.041844    0.152731
C       0.912281   -0.732494    1.263552
C       2.425061   -0.811763    1.322055
O       2.920932   -1.518424    0.195113
C       0.202996   -2.077366    1.428232
C       0.264814   -2.577983    2.796148
C       0.330443   -2.967890    3.931314
H       1.743561    1.977949    1.551871
H       0.110607    2.648294    1.461568
H       0.688330    1.951511    2.981899
H      -0.892124    0.364726    1.781472
H       2.866355    0.189971    1.387772
H       2.733748   -1.378479    2.205646
H       2.603573   -1.044420   -0.582818
H      -0.838340   -1.964382    1.108111
H       0.675008   -2.793573    0.744891
H       0.381431   -3.324668    4.930078
