20

C      -0.232605    1.367196   -0.046641
N       0.101937   -0.047383    0.028529
C       1.511156   -0.413656   -0.127883
C       0.828984   -0.512827    1.187412
C       1.242425    0.227294    2.493135
C       0.873799   -1.067778    3.236167
O      -0.508913   -1.319319    2.961646
C       0.468890   -1.754740    1.993104
C       0.454470   -3.182611    1.560758
H       0.544129    2.030187    0.369192
H      -0.390905    1.642273   -1.094099
H      -1.164183    1.545403    0.499042
H       1.707443   -1.296033   -0.732719
H       2.242351    0.387076   -0.242122
H       2.305533    0.478274    2.528488
H       0.645927    1.096201    2.781606
H       1.285198   -1.463872    4.157439
H      -0.345832   -3.352814    0.832424
H       1.403922   -3.457476    1.090479
H       0.283062   -3.837996    2.418441
