15

O       0.002168   -0.094135    0.047945
C       0.022798    1.089519   -0.178598
C       1.257952    1.945135   -0.029969
C       1.539081    2.929306   -1.185401
O       0.421564    3.819720   -1.265765
C       1.437537    4.102519   -0.307962
C       1.175312    3.219942    0.933413
C      -0.029945    3.464190    1.698825
C      -1.030985    3.663301    2.333541
H      -0.877092    1.634084   -0.526861
H       2.109405    1.313077    0.226365
H       2.112612    2.758730   -2.087976
H       1.907492    5.077485   -0.347058
H       2.051603    3.208426    1.588645
H      -1.917088    3.840665    2.891637
