20

C       0.917584   -0.193082    0.900469
C      -0.073861   -0.117723   -0.265764
C      -1.472688   -0.567955    0.111997
C      -2.403990   -1.147993   -0.923347
C      -1.796004   -2.030379    0.148709
O      -2.056882    0.152054    1.185992
C      -2.436788    1.478472    0.908445
C      -3.710724    1.593608    0.169028
N      -4.713838    1.701403   -0.394114
H       1.908047    0.157637    0.596331
H       0.581410    0.420490    1.740887
H       1.017913   -1.220968    1.263146
H      -0.099560    0.903665   -0.668640
H       0.268667   -0.747835   -1.094004
H      -3.459206   -0.922583   -0.837424
H      -2.042171   -1.237962   -1.942016
H      -1.017030   -2.732340   -0.128190
H      -2.452339   -2.364490    0.943516
H      -2.563674    1.974536    1.875943
H      -1.667991    2.031230    0.353190
