16

N      -0.105902    1.379219   -0.181448
C      -0.090895   -0.006274   -0.026525
C      -1.073241   -0.968164   -0.170888
C      -0.452529   -2.178234    0.229877
C      -1.045993   -3.555585    0.226892
C      -1.158370   -4.100353   -1.188509
O      -2.168070   -4.529894   -1.682169
N       0.814583   -1.993991    0.582396
N       1.012031   -0.658034    0.420239
H       0.687559    1.740197   -0.697606
H      -0.961002    1.700935   -0.614091
H      -2.081959   -0.821371   -0.521909
H      -0.374644   -4.217986    0.786953
H      -2.037437   -3.580725    0.687203
H      -0.201866   -4.065163   -1.757949
H       1.885875   -0.252896    0.709324
