20

C      -0.085152    1.422650    0.071765
C      -0.034745   -0.086447    0.012915
C      -0.667602   -0.788895   -1.145685
C      -1.328829   -1.870991   -0.735208
C      -1.209818   -2.023179    0.764504
N      -0.398583   -0.869333    1.222707
C       1.007059   -0.858498    0.774583
C       1.734000   -2.082260    0.266391
O       1.820012   -3.114035    1.247441
H       0.514022    1.864276   -0.732699
H      -1.113905    1.782425   -0.036314
H       0.303519    1.784852    1.026834
H      -0.589471   -0.429497   -2.164878
H      -1.861284   -2.574047   -1.365811
H      -2.189758   -1.986963    1.258538
H      -0.730517   -2.962792    1.062273
H       1.620747   -0.261881    1.453965
H       1.222246   -2.531212   -0.585990
H       2.737102   -1.777664   -0.072292
H       2.191249   -2.729910    2.048638
