20

C       0.793233    1.259108    0.208536
C      -0.154844    0.134598   -0.167190
O       0.398836   -0.557680   -1.246164
C      -0.228490   -1.805829   -1.530179
C       0.464048   -2.947105   -0.751434
C       1.225551   -2.425440    0.480906
C       0.358611   -1.669209    1.457296
N       0.316046   -1.994968    2.680835
O      -0.470881   -0.688673    0.968478
H       1.758697    0.853734    0.523631
H       0.953354    1.910830   -0.653990
H       0.369601    1.844792    1.027202
H      -1.145944    0.527829   -0.439177
H      -1.295945   -1.752536   -1.284174
H      -0.140555   -1.954855   -2.609700
H      -0.278559   -3.693523   -0.449956
H       1.183213   -3.459883   -1.398006
H       1.670341   -3.252555    1.035871
H       2.039692   -1.777879    0.140638
H      -0.324721   -1.375312    3.181981
