14

C      -0.437694    1.401603    0.221326
C       0.395284    0.167070   -0.169019
C       1.071099   -0.449885    0.967202
C       1.616358   -0.943348    1.918863
C       2.285983   -1.549615    3.066894
C       1.446775   -2.526234    3.775435
N       0.797445   -3.295373    4.340993
H       0.195144    2.172774    0.668599
H      -0.924591    1.824457   -0.662053
H      -1.210359    1.134992    0.947115
H      -0.251636   -0.578751   -0.647662
H       1.141629    0.447469   -0.922985
H       3.207491   -2.057506    2.753686
H       2.592991   -0.780180    3.787260
