20

C       0.287794    0.750677    0.615783
O      -0.307189    0.436280   -0.633128
C       0.519236   -0.297514   -1.505039
C       0.541956   -1.798325   -1.185940
C       1.204211   -2.787141   -2.213663
C       1.872677   -2.225285   -3.461138
N       2.120894   -3.169018   -1.130356
C       1.585802   -2.343375   -0.176401
O       1.854555   -2.158676    0.983359
H       0.566127   -0.144354    1.184427
H       1.190018    1.367490    0.478977
H      -0.450862    1.329159    1.175913
H       0.094154   -0.159190   -2.506102
H       1.539662    0.116863   -1.517270
H      -0.472869   -2.100790   -0.911743
H       0.527046   -3.603856   -2.491936
H       2.558988   -1.409709   -3.217364
H       2.445441   -3.006551   -3.972082
H       1.123216   -1.853075   -4.166982
H       2.823274   -3.891608   -1.064730
