15

O       0.006271    0.019579    0.148901
C      -0.018057    1.214365    0.025287
C      -1.264819    2.114063   -0.035633
C      -0.684658    3.467757   -0.377332
C       0.424565    4.062459    0.413714
C       1.206814    3.034204    1.217391
C       1.168673    2.157973   -0.074097
N       0.713018    3.356225   -0.895813
H      -1.939456    1.753842   -0.818754
H      -1.811152    2.070627    0.912175
H      -1.290789    4.166508   -0.944497
H       0.529188    5.139223    0.507883
H       2.223841    3.375107    1.418268
H       0.774882    2.634686    2.140437
H       2.092926    1.694723   -0.410488
