17

O      -0.117213    0.135023   -0.706171
C      -0.093468    1.254720   -0.246474
C      -1.212541    1.973351    0.518614
C      -0.735888    3.415239    0.611813
C      -1.530252    4.533141   -0.014472
C      -1.381677    4.447568    1.487569
C       0.785245    3.365546    0.431939
N       0.966675    2.122579   -0.296742
H      -2.168039    1.848169    0.004965
H      -1.303219    1.496600    1.502898
H      -0.992169    5.318108   -0.536173
H      -2.495046    4.289953   -0.447542
H      -2.245712    4.152279    2.073707
H      -0.742095    5.175236    1.977910
H       1.163181    4.224191   -0.134245
H       1.307364    3.346902    1.401012
H       1.859358    1.805398   -0.640039
