23

C      -0.367111    1.484793    0.106787
C      -0.108806    0.003285   -0.046349
C       0.572627   -0.631511   -1.260292
C      -0.010276   -1.881861   -1.877902
C       1.370878    0.312016   -2.169487
C       2.661434    0.560853   -1.365728
O       2.332402    0.340847    0.006731
C       1.276794   -0.599248    0.077226
C       1.589619   -1.780984    0.955061
H      -1.157172    1.830980   -0.569365
H      -0.686066    1.711298    1.129836
H       0.534752    2.070012   -0.085852
H      -0.898330   -0.625193    0.363856
H      -0.784067   -1.632407   -2.613720
H       0.757878   -2.470562   -2.393625
H      -0.473997   -2.526143   -1.124703
H       1.583531   -0.159845   -3.133386
H       0.834712    1.244277   -2.374258
H       3.452745   -0.138249   -1.678650
H       3.051583    1.578979   -1.457420
H       1.792531   -1.452344    1.979890
H       0.749936   -2.480921    0.986977
H       2.473691   -2.317522    0.593682
