17

C      -0.023504    1.347644    0.034174
O       0.003038   -0.059705    0.010848
C       0.656303   -0.567556   -1.136324
C       0.622782   -2.074527   -1.052158
N       1.642691   -2.668332   -0.422676
C       1.583231   -3.996856   -0.321054
C       0.527112   -4.736818   -0.839009
C      -0.471460   -4.016036   -1.482859
N      -0.433838   -2.687715   -1.596799
H       0.991437    1.776057    0.044357
H      -0.561569    1.761316   -0.833643
H      -0.542785    1.647238    0.947650
H       0.141480   -0.243116   -2.052750
H       1.702275   -0.228547   -1.170398
H       2.412463   -4.481616    0.189883
H       0.488296   -5.815993   -0.752550
H      -1.329780   -4.516550   -1.926085
