20

C       0.091723    1.433316    0.187014
C       0.121133   -0.085134   -0.003986
C       0.630097   -0.506498   -1.387104
C       0.661361   -2.026437   -1.579610
C       1.167045   -2.427072   -2.960100
O       1.101510   -3.849979   -3.134087
C       2.250552   -4.546420   -3.094935
O       2.292976   -5.736110   -3.189065
H       1.091333    1.866899    0.071514
H      -0.562901    1.913013   -0.549126
H      -0.274408    1.702521    1.182402
H       0.755058   -0.541003    0.767714
H      -0.885363   -0.495386    0.149652
H      -0.005173   -0.052352   -2.160326
H       1.637085   -0.094443   -1.542837
H       1.302604   -2.489093   -0.818358
H      -0.341491   -2.446858   -1.439565
H       0.543842   -1.994425   -3.748810
H       2.197126   -2.079751   -3.118059
H       3.141282   -3.896928   -2.975299
