16

C       0.008871    1.538804   -0.083835
C       0.052654    0.018639   -0.017123
O       0.709935   -0.466788   -1.170751
C       0.837639   -1.871410   -1.143986
C       1.690271   -2.306483    0.019087
N       2.470348   -3.290702   -0.032267
O       1.551216   -1.557086    1.178462
C       0.727077   -0.457140    1.271601
O       0.573710    0.056003    2.339135
H       1.022347    1.942979   -0.148381
H      -0.549312    1.848593   -0.969771
H      -0.472689    1.935822    0.810526
H      -0.977905   -0.380995    0.020520
H      -0.151321   -2.356543   -1.076898
H       1.316598   -2.189512   -2.069591
H       2.932635   -3.439725    0.866949
