18

N       0.040675    1.400854    0.018359
C      -0.019074    0.026231    0.006162
C      -1.216748   -0.611106    0.005517
C      -1.543198   -2.016949   -0.210075
O      -2.719200   -2.346501   -0.348584
C      -0.526342   -3.105248   -0.254681
C       0.739620   -3.096751    0.169916
C       1.504386   -1.918785    0.710687
C       1.337500   -0.631149   -0.104547
H       0.868853    1.838529    0.387834
H      -0.815416    1.903035    0.196987
H      -2.113373    0.001180    0.076727
H      -0.962247   -4.037184   -0.604139
H       1.284832   -4.037966    0.141997
H       1.210640   -1.729151    1.752738
H       2.569451   -2.171059    0.737818
H       1.541167   -0.839596   -1.162647
H       2.100766    0.089181    0.213429
