20

C      -1.021767    1.031745    0.052117
C       0.091262    0.001171    0.154682
C       1.193008   -0.023058   -0.947651
C       2.225040   -0.287790    0.160233
C       1.220450    0.220960    1.206441
C       2.926201   -1.655011    0.306181
C       4.194835   -0.838373    0.197505
N       5.421245   -1.098113    0.211298
O       3.531789    0.365095    0.069625
H      -0.611445    2.040810   -0.067418
H      -1.671034    0.831189   -0.807238
H      -1.648642    1.030319    0.950608
H      -0.336470   -1.000133    0.273560
H       1.113462   -0.752857   -1.757220
H       1.346294    0.972235   -1.376732
H       1.381643    1.286566    1.398055
H       1.163372   -0.309058    2.160464
H       2.790076   -2.162196    1.263302
H       2.767485   -2.363033   -0.509516
H       5.978233   -0.247901    0.107888
