16

C       0.059602    1.503375   -0.135376
C       0.002028   -0.005298    0.010710
O       0.648187   -0.571278   -1.140904
C       0.697802   -1.904784   -1.192706
N       0.210908   -2.655810   -0.292501
O       1.338589   -2.221637   -2.340803
C       1.511030   -3.602168   -2.615268
H       1.095040    1.851788   -0.185614
H      -0.456415    1.828048   -1.043317
H      -0.423216    1.976522    0.724873
H       0.515006   -0.351524    0.913736
H      -1.027093   -0.375345    0.060177
H       0.338441   -3.641533   -0.494648
H       2.112046   -4.092881   -1.840169
H       0.546548   -4.116364   -2.705572
H       2.038619   -3.655231   -3.568188
