18

C       0.108575    1.464447   -0.069767
C      -0.097328   -0.053711    0.038847
C      -1.590330   -0.413520    0.016660
O       0.549199   -0.690197   -1.083770
C       1.562511   -1.587976   -0.665469
C       1.547586   -1.504801    0.847084
C       0.610105   -0.638693    1.235047
C       2.421395   -2.257417    1.672814
N       3.149760   -2.886781    2.317187
H       1.173669    1.709559   -0.065098
H      -0.326910    1.827871   -1.004900
H      -0.374389    1.986663    0.762176
H      -2.038386   -0.063458   -0.917632
H      -1.726189   -1.496016    0.082011
H      -2.119923    0.056690    0.851243
H       1.347950   -2.606675   -1.019987
H       2.537152   -1.292591   -1.080537
H       0.368963   -0.373498    2.256092
