20

C       0.046674    1.354123    0.008865
O      -0.030360   -0.075409    0.001682
C      -1.280863   -0.589311    0.010939
O      -2.269692    0.100585    0.024436
C      -1.256901   -2.120368    0.002549
C      -2.702565   -2.636175    0.013551
C      -0.527045   -2.602353   -1.269833
C      -0.503089   -2.615683    1.255716
H       1.109992    1.595038    0.000448
H      -0.447501    1.772355   -0.871876
H      -0.431273    1.762569    0.903044
H      -3.254366   -2.282421   -0.860870
H      -2.706333   -3.730781    0.007855
H      -3.237653   -2.291636    0.901924
H       0.500965   -2.234601   -1.301821
H      -0.503830   -3.696882   -1.290721
H      -1.041817   -2.261366   -2.174150
H      -1.000646   -2.284385    2.173174
H      -0.479499   -3.710367    1.264562
H       0.525350   -2.248100    1.272117
