22

C      -0.211645    1.714432    0.094607
C       0.015791    0.207227    0.021981
C       1.137612   -0.417476   -0.865934
C       2.113035    0.411025   -1.683902
O       3.137060   -0.416235   -2.210172
N       1.758140   -1.140812    0.312780
C       2.103351   -0.104307    1.316755
C       0.690211   -0.508988    1.202880
C      -0.041932   -1.281418    2.260272
H       0.698537    2.264838    0.348827
H      -0.578510    2.102318   -0.861751
H      -0.963878    1.952550    0.854756
H      -0.936864   -0.278705   -0.210970
H       0.732323   -1.189800   -1.525767
H       1.595852    0.860958   -2.539171
H       2.537455    1.238849   -1.095242
H       3.421385   -0.992774   -1.490635
H       2.671691   -0.514802    2.146157
H       2.438760    0.877992    0.996418
H      -0.541357   -0.602481    2.961845
H      -0.806307   -1.930338    1.819100
H       0.648094   -1.909178    2.831296
