18

C       0.021608    1.522983   -0.120284
C      -0.005720    0.029373    0.060289
O       1.276471   -0.665356   -0.032746
C       0.610410   -0.652048    1.187064
C       1.131852   -0.169823    2.575427
N      -0.138492   -0.799674    3.082932
C       0.179518   -1.864643    2.065830
C       1.566466   -2.375777    2.496157
C       2.201229   -1.247311    2.834651
H       0.852075    1.968400    0.432887
H       0.132769    1.783183   -1.177997
H      -0.914449    1.962991    0.239822
H      -0.807834   -0.492479   -0.463692
H       1.330322    0.870926    2.827842
H      -0.004249   -1.159564    4.029704
H      -0.604286   -2.568564    1.789005
H       1.924637   -3.394028    2.452014
H       3.223040   -1.084903    3.145376
