24

C      -0.109178    1.657315   -0.100186
C      -0.061497    0.120978   -0.038172
C      -1.474423   -0.479485   -0.000218
C       0.769513   -0.502780   -1.182641
O       0.183805   -0.251908   -2.460786
C       2.255768   -0.106370   -1.177881
C       2.989879   -0.305098    0.132990
C       3.009531   -0.274710   -2.445314
N       2.680692    1.079076   -1.945709
H       0.890506    2.099148   -0.125484
H      -0.657148    2.019532   -0.981066
H      -0.638215    2.056262    0.770598
H       0.440856   -0.156141    0.895620
H      -2.019117   -0.273162   -0.927125
H      -1.439330   -1.566678    0.124196
H      -2.052958   -0.062835    0.830263
H       0.730725   -1.594143   -1.057035
H      -0.274362    0.593131   -2.424296
H       2.870674   -1.331833    0.498735
H       4.056918   -0.113281   -0.002299
H       2.630550    0.376316    0.910612
H       4.064975   -0.531388   -2.411058
H       2.467962   -0.633672   -3.313951
H       1.888139    1.412041   -2.491254
