19

C      -0.552620    1.091310   -0.227438
O       0.415450    0.105010    0.089148
C       0.934665   -0.531553   -1.027059
C       1.532336   -1.871842   -0.828727
C       1.595200   -2.536099    0.532470
O       1.589730   -3.950901    0.443420
C       0.204226   -1.750641   -1.616100
C      -1.070948   -2.212969   -1.030718
O      -1.926871   -2.792156   -1.660644
H      -0.135617    1.859488   -0.894015
H      -1.435240    0.649873   -0.710839
H      -0.851253    1.557120    0.713495
H       1.387611    0.140780   -1.757756
H       2.379276   -2.112314   -1.464741
H       2.547778   -2.275246    1.005264
H       0.801727   -2.159161    1.188014
H       0.756960   -4.221909    0.042430
H       0.264504   -1.900291   -2.688902
H      -1.212277   -1.992441    0.048315
