22

C       0.062357    1.535969   -0.298497
C       0.019799    0.006891   -0.220990
C      -1.362417   -0.524267    0.166334
C      -2.409571   -0.517800   -0.991037
C      -2.126818   -2.027158   -1.231246
C      -1.481730   -2.071797    0.182314
O      -0.272150   -2.757579    0.365675
C      -0.416986   -4.158803    0.357509
H       1.057481    1.890327   -0.585249
H      -0.651071    1.923490   -1.034113
H      -0.185830    1.987294    0.668895
H       0.327302   -0.421655   -1.182766
H       0.752199   -0.349629    0.511252
H      -1.685597   -0.036833    1.092448
H      -3.427058   -0.336806   -0.635224
H      -2.212332    0.159195   -1.825836
H      -2.978137   -2.681964   -1.431051
H      -1.369632   -2.182248   -2.004893
H      -2.218980   -2.403190    0.932062
H      -1.098938   -4.500955    1.152526
H      -0.800895   -4.529373   -0.604948
H       0.571684   -4.591050    0.530507
