20

C       0.209754    1.424223   -0.447696
C      -0.020567    0.041209    0.114267
N       1.143794   -0.859304    0.209092
C       0.450785   -0.432997    1.444103
C       1.270232    0.392663    2.406990
N       2.284819   -0.438448    3.034155
C       2.664176   -0.231638    4.339757
N       3.788713   -0.960627    4.720166
O       2.089709    0.527180    5.099430
H       1.185742    1.818048   -0.158167
H       0.175520    1.397933   -1.542149
H      -0.563690    2.119390   -0.103730
H      -0.952802   -0.414302   -0.219181
H       0.880790   -1.809588   -0.036248
H      -0.171649   -1.179731    1.935300
H       1.727713    1.243573    1.888451
H       0.648356    0.793448    3.210542
H       2.943838   -0.866545    2.402139
H       3.934910   -1.854905    4.275477
H       3.902842   -0.983314    5.722391
