19

C       0.334289    1.302418    0.137011
C      -0.264349   -0.111500   -0.017151
C      -1.725852   -0.085343   -0.028498
C      -2.927026   -0.056336   -0.063377
C       0.253038   -0.759585   -1.296769
O       1.603889   -1.222237   -1.282362
C       0.547620   -2.188693   -1.468451
C       0.430782   -3.245441   -0.398862
O       1.477675   -4.195023   -0.513090
H       1.425815    1.240771    0.145290
H       0.025936    1.945016   -0.693013
H      -0.002380    1.764345    1.068093
H       0.071671   -0.714338    0.833416
H      -3.988628   -0.035878   -0.081172
H      -0.014958   -0.201738   -2.196648
H       0.506200   -2.588863   -2.482897
H       0.413148   -2.788700    0.599678
H      -0.504261   -3.800418   -0.530132
H       2.306125   -3.706718   -0.446861
