13

C       0.023630    1.527444    0.009542
C       0.046627    0.011412    0.001685
O       1.085810   -0.601118   -0.011174
N      -1.201050   -0.686557    0.009950
C      -1.133517   -2.121553    0.001782
O      -2.082749   -2.846745    0.006297
C      -2.442353   -0.002485    0.025533
O      -3.520711   -0.519570    0.033308
H       1.062656    1.854848    0.001100
H      -0.488733    1.931270   -0.868494
H      -0.471490    1.922313    0.901441
H      -0.086335   -2.448534   -0.010110
H      -2.307174    1.089718    0.029644
