18

N       0.688802   -1.118865   -0.231273
C       0.483069    0.016968   -0.224904
C       0.182674    1.452087   -0.225888
O       1.351274    2.164311    0.092486
C       1.154038    3.575798    0.198877
C       2.424441    4.159807    0.821660
C       3.297597    4.377399   -0.415732
O       2.394367    4.833942   -1.418593
C       1.109446    4.271027   -1.182014
H      -0.216968    1.719718   -1.216711
H      -0.617355    1.643389    0.508479
H       0.250707    3.771427    0.792316
H       2.195368    5.117516    1.298416
H       2.853338    3.483121    1.562299
H       4.068681    5.141204   -0.286381
H       3.779918    3.436975   -0.720308
H       0.857780    3.547848   -1.970439
H       0.365146    5.076309   -1.208800
