18

C       0.137953    1.587508    0.023820
C      -0.000998    0.058239    0.001688
O       0.676174   -0.400351    1.180542
C      -1.477525   -0.407471    0.008740
C      -2.271395    0.035035    1.233585
O      -3.525599   -0.632526    1.175811
C       0.657812   -0.489205   -1.195670
C       1.187901   -0.970394   -2.161584
H       1.191768    1.863159   -0.050235
H      -0.404866    2.036011   -0.811620
H      -0.256606    1.983837    0.962379
H       0.769213   -1.356848    1.108705
H      -1.973784   -0.056909   -0.902379
H      -1.496573   -1.502979   -0.028536
H      -1.713106   -0.227885    2.142831
H      -2.409334    1.126820    1.231362
H      -4.035746   -0.373573    1.948641
H       1.663301   -1.386274   -3.015596
