16

C      -0.042481    1.332380   -0.034437
O       0.002648   -0.079562   -0.003278
C       0.638156   -0.616931    1.061863
C       1.250724    0.007851    2.125148
N       1.749362   -0.990927    2.942575
C       1.467201   -2.214281    2.422255
C       0.768318   -2.036132    1.238285
C       0.282321   -3.044831    0.378412
C      -0.134309   -3.902677   -0.357942
H       0.968234    1.762974   -0.064028
H      -0.580758    1.610173   -0.941912
H      -0.572301    1.733689    0.840817
H       1.375384    1.047388    2.370667
H       2.249000   -0.830978    3.798492
H       1.771022   -3.125376    2.910244
H      -0.503436   -4.654999   -1.008837
