18

C       0.747129    1.311369   -0.151193
O       0.773639   -0.105531    0.049240
C       0.265140   -0.548319    1.213623
N      -0.211483    0.235581    2.083613
C       0.394864   -2.072231    1.248508
C       1.882270   -2.518407    1.271408
N       1.968800   -3.969164    1.162677
C      -0.323172   -2.633696    2.391913
N      -0.859960   -3.080455    3.312856
H       1.320188    1.821219    0.627481
H       1.193757    1.477335   -1.131932
H      -0.280399    1.682902   -0.125534
H      -0.555603   -0.270948    2.896808
H      -0.046829   -2.479474    0.332234
H       2.359289   -2.069276    0.397582
H       2.356384   -2.088035    2.168243
H       2.930423   -4.247371    0.999135
H       1.683054   -4.406932    2.033875
