11

O      -0.037212    1.438006    0.009723
C       0.029621    0.029677   -0.029377
C       0.681462   -0.484489   -1.234066
C       1.228384   -0.863499   -2.233334
C       0.731855   -0.494134    1.238709
F       0.056158   -0.129737    2.329646
F       0.823393   -1.826522    1.229667
F       1.970272    0.013941    1.330799
H       0.859788    1.774909   -0.104061
H      -1.005018   -0.326766    0.021605
H       1.708194   -1.208813   -3.116336
