19

C       0.005010    1.550399   -0.011965
C       0.002527    0.051736   -0.013472
C       0.715473   -0.859209   -0.987655
C       1.782841   -1.820799   -0.495883
O       1.504428   -2.436228    0.750175
C       0.932443   -1.601159    1.734915
C      -0.285052   -0.859482    1.197269
O      -1.112359   -1.745834    0.389199
C      -0.777801   -0.991086   -0.773971
H       0.886454    1.951847    0.503100
H       0.019060    1.941924   -1.034436
H      -0.883932    1.951521    0.488362
H       0.966623   -0.377082   -1.931207
H       1.924106   -2.646571   -1.201444
H       2.736945   -1.266070   -0.440170
H       0.654374   -2.268849    2.556119
H       1.655628   -0.861452    2.124042
H      -0.869481   -0.390510    1.996245
H      -1.521649   -0.921302   -1.560182
