14

C      -0.029010    1.506963    0.006908
C      -0.006366    0.008444   -0.011397
C      -0.039935   -0.699977   -1.154685
O      -0.021419   -2.055693   -1.222486
C       0.034635   -2.743950   -0.062470
C       0.072672   -2.159543    1.145727
C       0.055155   -0.702646    1.280885
O       0.087949   -0.115515    2.354616
H       0.861479    1.893703    0.512633
H      -0.076112    1.926530   -1.001380
H      -0.887590    1.866337    0.583063
H      -0.085477   -0.267175   -2.146898
H       0.044344   -3.811905   -0.242050
H       0.117171   -2.765745    2.042069
