17

C      -0.056004    1.491758   -0.009442
O       1.383980    1.502012    0.220218
C       1.492160    0.115015   -0.208908
C       2.187189   -0.898892    0.662398
O       1.572754   -1.236952    1.904768
C       1.462802   -2.176203    0.836784
C       0.061892   -2.401153    0.266727
C      -0.693455   -1.102555    0.083073
C       0.000512   -0.006279   -0.172581
H      -0.619161    1.874035    0.849156
H      -0.319751    2.070199   -0.905691
H       1.948043    0.068956   -1.211521
H       3.276498   -0.889985    0.683451
H       2.053201   -3.082838    0.972619
H       0.155616   -2.968594   -0.670270
H      -0.489735   -3.052692    0.955270
H      -1.763305   -1.086529    0.266716
