23

C      -0.096074    1.570772   -0.178986
C       0.021987    0.049888   -0.107941
C       1.253197   -0.518321   -0.875699
C       2.010013   -0.649070    0.473309
C       0.643860   -0.535327    1.207304
C       0.557676    0.240475    2.516495
C       1.311983   -0.460916    3.662744
C       1.313262    0.367711    4.925010
O       0.895747    0.006076    5.994872
H       0.854076    2.067101    0.047902
H      -0.391919    1.880669   -1.187094
H      -0.847643    1.954079    0.519436
H      -0.939821   -0.394959   -0.381856
H       1.047002   -1.492523   -1.326981
H       1.696652    0.128877   -1.637381
H       2.601382   -1.553275    0.636342
H       2.649992    0.217921    0.669389
H       0.237266   -1.541355    1.366651
H       0.966890    1.249674    2.381135
H      -0.494190    0.368026    2.803848
H       0.882198   -1.441729    3.887079
H       2.359857   -0.607613    3.362233
H       1.738614    1.392143    4.795419
