20

C      -0.164729    1.544289   -0.032666
C       0.010720    0.031160   -0.001462
C       1.175992   -0.521081   -0.850182
O       1.227896   -1.931985   -0.623604
C       1.878816   -1.064665    0.329023
C       3.314756   -1.314075    0.648967
C       0.770629   -0.542726    1.232572
C       0.880213    0.074615    2.571727
N       0.264605   -1.258097    2.395425
H       0.783992    2.058990    0.152752
H      -0.542316    1.872824   -1.007106
H      -0.879592    1.878479    0.726460
H      -0.932718   -0.481642   -0.217911
H       1.562197   -0.141640   -1.790398
H       3.870057   -1.557315   -0.260475
H       3.769849   -0.434549    1.115606
H       3.410807   -2.154679    1.344878
H       1.826766    0.069429    3.106449
H       0.242988    0.926472    2.796753
H      -0.749437   -1.187035    2.439157
