23

C      -0.114187    1.558640    0.018372
C      -0.014467    0.046463    0.003145
C      -1.229331   -0.645523    0.594610
C       0.684112   -0.676388   -1.138621
C       1.379594    0.065015   -2.279846
C       2.914208    0.103155   -2.121781
C       3.335533    0.444898   -0.711983
C       2.605298    0.111681    0.354396
C       1.330469   -0.637083    0.231918
H       0.819684    2.042558   -0.274368
H      -0.906669    1.908490   -0.654595
H      -0.363196    1.911879    1.026031
H      -2.139992   -0.382827    0.042429
H      -1.125497   -1.734873    0.565073
H      -1.381682   -0.352649    1.640502
H       0.232862   -1.623152   -1.421587
H       1.119820   -0.407036   -3.233041
H       1.012724    1.094708   -2.344526
H       3.342463   -0.871461   -2.399393
H       3.340753    0.824243   -2.828387
H       4.280832    0.965752   -0.581470
H       2.947719    0.368439    1.354588
H       1.282122   -1.545399    0.829718
