22

C       0.037451    1.461079   -0.087029
C       0.091722   -0.049375    0.070866
O       1.120016   -0.625459    0.341512
C      -1.224437   -0.792989   -0.129376
C      -1.081782   -2.313802   -0.119572
C      -2.428417   -3.029087   -0.220661
N      -2.245976   -4.474923   -0.275113
C      -2.190014   -5.167141    1.008129
C      -3.385814   -5.288339    0.129010
H       0.995579    1.898721    0.195632
H      -0.183881    1.717993   -1.129646
H      -0.765091    1.890734    0.522207
H      -1.909616   -0.457375    0.664134
H      -1.683540   -0.439871   -1.063503
H      -0.442295   -2.633634   -0.948313
H      -0.564581   -2.620903    0.795248
H      -3.076472   -2.728262    0.625847
H      -2.948667   -2.725894   -1.138693
H      -1.470071   -5.977032    1.081183
H      -2.300217   -4.572583    1.914431
H      -4.291133   -4.775308    0.451390
H      -3.556677   -6.188704   -0.454335
