19

C      -0.015911    1.596220    0.759385
C      -0.148728    0.265906    0.005826
C       0.826854   -0.798440    0.552228
C      -1.558440   -0.283076    0.125986
O      -2.172425   -0.324264    1.168151
C      -2.240908   -0.858448   -1.140684
O      -3.435834   -1.498375   -0.793425
C      -2.436348    0.238961   -2.098404
C      -2.596289    1.150472   -2.865520
H       1.015927    1.956484    0.712649
H      -0.665496    2.361807    0.325489
H      -0.294413    1.468645    1.808636
H       0.063420    0.423493   -1.057196
H       0.627039   -0.990776    1.610432
H       0.742835   -1.746616    0.011416
H       1.857192   -0.445181    0.452570
H      -1.546497   -1.590170   -1.585419
H      -3.590974   -1.242846    0.132328
H      -2.748451    1.944568   -3.554558
