19

O      -0.167309    1.373363   -0.017252
C       0.026657    0.004851    0.013477
C       0.547339   -0.970796   -1.075104
N       0.155527   -1.907144    0.076457
C       0.838775   -0.876707    0.995683
C      -1.109226   -1.017110    0.198431
C      -1.888001   -1.125780    1.491638
C      -2.931381   -2.171921    1.630840
N      -1.674621   -2.280970    2.387076
H       0.689008    1.810237   -0.083943
H      -0.053097   -1.108748   -1.977707
H       1.618689   -0.984962   -1.290942
H       1.928208   -0.880641    0.902040
H       0.524230   -0.933178    2.037530
H      -1.758595   -1.141577   -0.674518
H      -2.029905   -0.185435    2.020302
H      -3.817157   -1.984247    2.231313
H      -3.088048   -2.840429    0.787123
H      -1.057274   -2.936430    1.909667
