19

C      -0.033532    1.557017    0.037928
C      -0.017811    0.027487    0.035298
C       0.695322   -0.544283   -1.207162
C       0.730054   -1.998703   -1.243364
C       0.746204   -3.204121   -1.251995
C       0.812509   -4.640916   -1.346259
O       1.325815   -5.250336   -2.253179
O       0.222501   -5.223600   -0.282231
C       0.242284   -6.656633   -0.293986
H       0.983073    1.965643    0.033027
H      -0.553561    1.951395   -0.842138
H      -0.542795    1.942732    0.925810
H       0.482980   -0.347804    0.934403
H      -1.041217   -0.361994    0.066183
H       0.203039   -0.177775   -2.118282
H       1.724772   -0.163368   -1.251333
H      -0.269594   -6.964826    0.617557
H      -0.276306   -7.043164   -1.175112
H       1.269996   -7.028890   -0.301635
