19

C      -0.046988    1.547925    0.090257
C      -0.004782    0.027095   -0.003037
C      -1.378232   -0.569865   -0.301681
C       1.120319   -0.590530   -0.926474
C       1.721043   -1.287352    0.294503
N       2.095229   -0.226458    1.243746
C       0.681051   -0.690952    1.196299
C       0.047625   -1.244739    2.345919
N      -0.487541   -1.684231    3.274430
H       0.932122    1.947442    0.362919
H      -0.343177    1.980736   -0.871676
H      -0.776226    1.873403    0.840392
H      -1.747033   -0.205439   -1.266119
H      -1.343096   -1.663413   -0.343833
H      -2.104961   -0.287774    0.467374
H       0.712348   -1.282439   -1.665767
H       1.789918    0.120895   -1.414505
H       2.172771   -2.269805    0.352427
H       2.534675   -0.666024    2.052787
