18

C      -0.646451    1.389787   -0.052159
C       0.023486    0.016392   -0.031808
C       1.300723   -0.103223   -0.883059
C       2.010596   -1.327367   -0.282060
O       1.454659   -1.529445    1.025443
C       0.558042   -0.489874    1.336220
C       1.235273    0.626194    2.126045
O       2.421517    0.829218    2.125999
H       0.049042    2.184794    0.237054
H      -1.008389    1.621742   -1.058540
H      -1.507155    1.430106    0.623822
H      -0.698178   -0.736520   -0.370961
H       1.084835   -0.221798   -1.947665
H       1.914460    0.795006   -0.761589
H       1.830670   -2.237282   -0.867816
H       3.091872   -1.179219   -0.196928
H      -0.249328   -0.899197    1.958648
H       0.537062    1.269596    2.711646
