15

C      -0.029032    1.624743    0.021672
C      -0.018970    0.109433    0.007228
C       1.203066   -0.629643   -0.610409
O       2.031470   -0.194813    0.532576
C       0.756048   -0.649138    1.123023
C       0.855951   -1.913059    0.210107
C      -0.319316   -2.706055   -0.101890
N      -1.253869   -3.340246   -0.350026
H       0.956624    2.016365    0.280304
H      -0.316126    2.016922   -0.959366
H      -0.756902    1.997707    0.749522
H      -0.992822   -0.317046   -0.248706
H       1.638788   -0.571619   -1.607564
H       0.654953   -0.614528    2.207515
H       1.726389   -2.532322    0.427611
