16

C      -0.264349    1.643072    0.109757
C      -0.196160    0.135831    0.114207
C      -1.380845   -0.591545   -0.497445
O      -1.480784   -0.318424   -1.883754
O       1.059622   -0.436506   -0.296276
C       0.656561   -0.601571    1.077176
C       1.441331    0.057729    2.085841
C       2.087401    0.579811    2.954759
H       0.673942    2.076535    0.458021
H      -0.471973    1.993835   -0.904811
H      -1.074821    1.989183    0.759950
H      -1.287763   -1.670752   -0.305895
H      -2.316705   -0.245683   -0.046009
H      -0.651797   -0.609336   -2.281669
H       0.366443   -1.622480    1.327205
H       2.662462    1.045321    3.716916
