18

C       0.674084    1.032409    0.625176
C       0.000842   -0.273154    0.198848
N       0.698998   -0.932074   -0.893227
C       0.174899   -1.076776   -2.127270
O      -0.939882   -0.738439   -2.486779
C       1.125347   -1.772341   -3.129724
O       2.407021   -2.023470   -2.625100
C       0.470007   -3.068692   -3.577071
O       1.073262   -4.113065   -3.515596
H       1.703010    0.859343    0.958701
H       0.700476    1.745158   -0.203987
H       0.125777    1.488436    1.455252
H      -0.064422   -0.960899    1.050985
H      -1.015341   -0.088797   -0.156880
H       1.655400   -1.238283   -0.783352
H       1.160656   -1.105469   -4.005989
H       2.538063   -2.982059   -2.731564
H      -0.568760   -2.988682   -3.939699
