12

F       0.000397    0.076493    0.003150
C      -0.010030    1.394146    0.010589
N      -1.206269    1.947561    0.029900
C      -1.217298    3.292481    0.037446
C      -0.028265    4.030497    0.025320
C       1.154125    3.304577    0.005233
N       1.181615    1.969290   -0.002482
C      -2.485893    3.946991    0.058302
C      -3.538502    4.528687    0.075816
H      -0.038640    5.111826    0.031405
H       2.118512    3.805745   -0.005140
H      -4.476428    5.028091    0.091311
