16

C      -0.020609    1.525164    0.009653
C       0.008583    0.016723   -0.001099
C      -0.036017   -0.695402   -1.197014
C      -0.008211   -2.097401   -1.199995
C       0.065072   -2.801708    0.007018
C       0.109653   -2.094336    1.202747
C       0.081726   -0.703629    1.197744
C      -0.055101   -2.806620   -2.441852
N      -0.093085   -3.379554   -3.447320
H       0.877518    1.934661    0.484767
H      -0.079441    1.931249   -1.002925
H      -0.881882    1.900046    0.573284
H      -0.093061   -0.167104   -2.142401
H       0.086208   -3.884797   -0.001913
H       0.166456   -2.631493    2.143215
H       0.117076   -0.163765    2.139481
