16

C      -0.174140    1.581379    0.109138
C       0.046523    0.095944    0.112552
C      -1.130562   -0.909614    0.083873
C      -0.417455   -1.768575    1.172785
C       0.765232   -0.747921    1.205619
C       1.778134   -1.016324    0.102590
O       2.802783   -1.604292   -0.035822
O       1.084631   -0.310352   -0.854710
H       0.766783    2.116462    0.266702
H      -0.593796    1.902502   -0.850224
H      -0.875646    1.865801    0.899247
H      -2.075440   -0.477806    0.422237
H      -1.283524   -1.379903   -0.888929
H      -0.961255   -1.798410    2.118146
H      -0.145471   -2.788981    0.897463
H       1.132052   -0.381969    2.162551
