19

C       0.018236    1.174354   -0.411673
C       1.207386    0.468336    0.150033
N      -0.128001    0.122090    0.598844
C      -0.678237   -1.118194    0.238109
N       0.058743   -2.127630    0.010618
C      -0.599497   -3.409471   -0.228915
C      -2.055560   -3.442243    0.225128
O      -2.743498   -2.303453   -0.272226
C      -2.195220   -1.117076    0.253031
H      -0.236488    2.179003   -0.086903
H      -0.263964    0.933019   -1.434114
H       1.710998   -0.258866   -0.478903
H       1.830147    0.964657    0.888123
H      -0.537234   -3.631131   -1.302777
H      -0.027658   -4.193251    0.283670
H      -2.578001   -4.320034   -0.165129
H      -2.111586   -3.468704    1.326256
H      -2.533621   -0.938591    1.288565
H      -2.573086   -0.289028   -0.356083
