14

C      -0.009171    1.509489    0.015894
C       1.311367    0.782708   -0.000311
C       1.941999    0.525412    1.356462
O       0.884742    0.051975    2.187337
C      -0.036208   -0.666968    1.370478
C       0.016662    0.002314    0.008862
H      -0.306135    2.012922    0.931022
H      -0.315356    2.006723   -0.897608
H       1.947788    0.827790   -0.875918
H       2.744630   -0.224994    1.263861
H       2.357186    1.415561    1.841215
H       0.251560   -1.727712    1.281525
H      -1.012130   -0.615322    1.865088
H      -0.329482   -0.544853   -0.859782
