16

N      -0.011188    1.418773    0.087603
C       0.001466    0.015426    0.024214
C      -1.085575   -0.830461    0.028035
N      -0.609824   -2.133563    0.072882
C      -1.428137   -3.313246   -0.039451
C      -1.826081   -3.630450   -1.424197
N      -2.141932   -3.881616   -2.506364
C       0.760681   -2.112785    0.067876
C       1.172003   -0.802692    0.049964
H       0.771517    1.832146   -0.402800
H      -0.869144    1.819739   -0.268784
H      -2.144250   -0.627826    0.011396
H      -0.882307   -4.168126    0.371271
H      -2.335758   -3.193020    0.562454
H       1.325864   -3.031370    0.078166
H       2.194197   -0.456892    0.079125
