17

C      -0.161708    1.659683    0.024585
C       0.059285    0.145164   -0.065069
C       1.085581   -0.323443    0.964883
O       1.703011   -1.353861    0.875204
C      -1.257349   -0.617232    0.102184
C      -1.257362   -2.153948    0.202669
C      -1.831815   -1.903231    1.595385
O      -2.226159   -2.530733    2.521412
O      -1.775429   -0.528613    1.479126
H       0.780085    2.204442   -0.091291
H      -0.845099    2.001316   -0.757974
H      -0.595637    1.928819    0.992607
H       0.456029   -0.130791   -1.050261
H       1.231914    0.358460    1.830987
H      -2.006844   -0.214191   -0.585443
H      -1.924162   -2.686788   -0.476377
H      -0.271800   -2.621141    0.212261
