21

C      -0.355726   -1.196142   -0.200070
C      -0.192702   -0.006549   -0.106219
C      -0.045127    1.413875   -0.009834
C       0.479765    2.091041    1.261324
C       0.934070    1.263238    2.461182
C       2.444204    0.976255    2.442177
C       2.869481    0.372269    1.099525
C       2.635291    1.360443   -0.058690
C       1.312466    2.108560    0.004040
H      -0.493098   -2.245044   -0.289326
H      -0.827148    1.962637   -0.528040
H      -0.038205    3.012850    1.506555
H       0.666777    1.794119    3.380190
H       0.390208    0.310947    2.483859
H       2.998696    1.908775    2.616028
H       2.700914    0.299011    3.264223
H       3.929527    0.096510    1.120243
H       2.305625   -0.549590    0.924931
H       3.431323    2.116084   -0.032893
H       2.731159    0.845191   -1.021857
H       1.315502    3.043077   -0.550474
