17

C      -0.056462    1.465531    0.022484
N      -0.002624    0.019086   -0.004169
C       0.032723   -0.773318   -1.151285
C       0.035299   -2.080197   -0.774428
C       0.022812   -2.117601    0.660794
C       0.063570   -3.290582    1.499747
O       0.083715   -4.442645    1.111327
C       0.000375   -0.788516    1.094027
N      -0.101246   -0.233768    2.369865
H       0.938336    1.913095    0.139866
H      -0.488083    1.825577   -0.913172
H      -0.689494    1.790642    0.852095
H       0.051070   -0.306713   -2.122991
H       0.052567   -2.945573   -1.416831
H       0.085534   -3.076281    2.598225
H      -0.154484   -0.943076    3.088407
H       0.640011    0.419943    2.596561
