19

C      -0.038176    1.511330    0.060349
C       0.025676    0.010436    0.001132
C      -0.058991   -0.687034   -1.135615
C       0.015527   -2.187038   -1.194332
O       0.433067   -2.780910    0.021040
C      -0.215851   -2.215834    1.142929
C       0.146817   -0.748049    1.282939
C       1.025287   -0.303999    2.380377
O      -0.389667   -0.123006    2.462673
H       0.906262    1.941278    0.416564
H      -0.242367    1.931441   -0.927337
H      -0.815778    1.839929    0.756384
H      -0.194139   -0.175849   -2.086199
H      -0.965474   -2.594874   -1.503796
H       0.740819   -2.505581   -1.952424
H      -1.311481   -2.303591    1.054236
H       0.101697   -2.786483    2.019107
H       1.444463   -1.048763    3.056290
H       1.607015    0.610779    2.282446
