21

C      -0.232245    1.555587   -0.082385
C       0.071499    0.070538    0.070237
C       1.315246   -0.675331   -0.337588
C       2.631779   -0.054281    0.168399
O       2.764918    1.395287    0.223469
C       2.413477    1.407427    1.634944
C       2.147941   -0.109931    1.620107
C       0.798584   -0.708624    1.137271
C       0.133806   -1.824265    1.897131
H       0.665085    2.166299   -0.131124
H      -0.782319    1.708241   -1.017690
H      -0.874890    1.911519    0.730992
H      -0.797219   -0.521933   -0.222814
H       1.283366   -1.456075   -1.091049
H       3.544676   -0.539396   -0.186035
H       3.277577    1.697898    2.245130
H       1.575382    2.075628    1.855441
H       2.652208   -0.721347    2.367966
H      -0.364795   -1.447120    2.799323
H      -0.625722   -2.322814    1.286170
H       0.858679   -2.582682    2.215907
