19

C      -0.178952    1.563556   -0.000522
C       0.010604    0.053991    0.007501
C       1.236753   -0.598777   -0.687301
C       2.170527   -0.194635    0.512338
C       3.160839   -1.330870    0.722510
C       2.429757   -2.428580    0.535770
C       1.039166   -1.882284    0.222613
O      -0.026249   -2.759763    0.033370
C       0.799832   -0.643878    1.151194
H       0.738167    2.111111    0.235007
H      -0.523764    1.904881   -0.983201
H      -0.938366    1.861534    0.731155
H      -0.930784   -0.451086   -0.226383
H       1.506306   -0.586345   -1.748533
H       2.504380    0.834557    0.616498
H       4.207571   -1.229342    0.972290
H       2.695827   -3.474841    0.596155
H       0.161001   -3.301589   -0.740201
H       0.563138   -0.680670    2.218531
