23

C      -0.005301    1.503231    0.062977
C      -0.066700    0.013357   -0.012088
C      -0.073753   -0.784092   -1.087009
C       0.000626   -2.235529   -0.622546
C      -0.438447   -3.295091   -1.618630
C       1.453743   -2.417921   -0.053785
C       1.466626   -1.497590    1.202920
C       0.018152   -0.901527    1.207275
C      -0.788822   -2.117150    0.707193
H       0.908453    1.839044    0.571371
H      -0.023085    1.957741   -0.931888
H      -0.845992    1.910706    0.639227
H      -0.021792   -0.476416   -2.126109
H       0.197640   -3.290674   -2.511436
H      -0.382675   -4.297688   -1.179866
H      -1.470147   -3.128213   -1.946609
H       1.623707   -3.465548    0.218279
H       2.211278   -2.143554   -0.792474
H       1.646441   -2.073383    2.116207
H       2.229741   -0.716303    1.152952
H      -0.279346   -0.454805    2.158042
H      -1.847051   -1.892449    0.547620
H      -0.692367   -3.002084    1.347654
