19

C      -0.072173    1.416442   -0.073332
N       0.078714   -0.027294    0.060668
C       1.441567   -0.566458   -0.097916
C       0.768947   -0.543303    1.221098
C       1.064870    0.216207    2.498693
C       0.051686   -0.574872    3.243740
C       0.192833   -1.663126    2.102271
C       1.442953   -2.114812    2.873536
N       1.490960   -0.773336    3.557123
H       0.799385    1.992251    0.278002
H      -0.234633    1.658632   -1.128181
H      -0.951243    1.744929    0.490122
H       1.522771   -1.484562   -0.674961
H       2.249814    0.146601   -0.260053
H       1.391862    1.236293    2.646191
H      -0.708996   -0.311327    3.966293
H      -0.563990   -2.337539    1.708477
H       1.247585   -2.874064    3.634552
H       2.336375   -2.380240    2.296522
