16

O       0.850019    0.980079    1.250914
C       0.557545    1.681605    0.319105
C       1.137972    1.532005   -1.084423
N       1.225945    2.807074   -1.762364
C       2.313196    3.631613   -1.493039
N       2.674911    4.565356   -2.370392
N       3.715510    5.193222   -1.768950
C       4.016575    4.680094   -0.558712
C       3.126771    3.650342   -0.330171
H      -0.185076    2.507247    0.402572
H       2.090931    0.987687   -1.013959
H       0.434740    0.896529   -1.637711
H       0.990784    2.795943   -2.743336
H       4.165258    5.951595   -2.250259
H       4.822680    5.071402    0.041819
H       3.074093    3.017388    0.539680
