21

C      -0.535553    1.453323    0.168664
C       0.129363    0.089995    0.004373
C       1.311949    0.052768   -0.970538
O       2.065832   -1.108442   -0.630422
C       1.838289   -1.462569    0.737175
C       3.063140   -1.183504    1.613280
C       2.884637    0.299257    1.945166
O       1.473810    0.502785    2.039893
C       0.774142   -0.484883    1.278439
H       0.169130    2.174393    0.589596
H      -0.893481    1.834457   -0.793451
H      -1.395598    1.393548    0.843116
H      -0.612121   -0.645874   -0.334467
H       1.009225   -0.034454   -2.018780
H       1.926294    0.961979   -0.869106
H       1.527495   -2.511848    0.770063
H       3.013292   -1.791005    2.523400
H       3.994328   -1.408063    1.089711
H       3.331442    0.595963    2.898684
H       3.314318    0.931834    1.154477
H       0.037463   -0.957779    1.937057
