14

N      -0.958316    0.018772   -1.454631
C      -0.430915    0.497689   -0.545351
C       0.236894    1.103563    0.603171
C       1.554853    1.791951    0.286341
C       2.108261    1.856384   -0.993335
N       3.269025    2.471157   -1.230143
C       3.874174    3.021749   -0.178992
C       3.323597    2.958636    1.100086
N       2.165735    2.345656    1.337315
H      -0.440682    1.830057    1.066376
H       0.412954    0.331354    1.360871
H       1.605945    1.403600   -1.843044
H       4.820188    3.525901   -0.356850
H       3.826490    3.411499    1.950513
