18

O       0.047625    0.023901   -0.103611
C       0.015407    1.225154   -0.072621
N      -1.201770    1.990289   -0.075094
C      -1.387556    2.698707    1.222009
C      -0.817841    3.413900    0.061258
C       0.698540    3.579659   -0.046388
C       1.206029    2.144849   -0.028220
C       2.402482    1.663484    0.778021
C       2.475451    1.679845   -0.712566
H      -2.425416    2.841206    1.505261
H      -0.723697    2.428565    2.040065
H      -1.447132    4.108660   -0.485811
H       0.944719    4.078723   -0.989200
H       1.104727    4.193161    0.764367
H       2.950482    2.417011    1.333767
H       2.298153    0.702294    1.268942
H       2.414424    0.729236   -1.231042
H       3.077917    2.440985   -1.196695
