13

O      -0.006635    1.388920    0.324991
C      -0.037955    0.058928    0.066614
C      -1.167044   -0.668728   -0.013905
N      -1.105723   -2.018203   -0.281224
C       0.067807   -2.711838   -0.481187
N       0.073035   -3.952118   -0.724226
O       1.215435   -1.952569   -0.395450
C       1.243443   -0.597539   -0.131782
O       2.302951   -0.024903   -0.078093
H       0.932808    1.631600    0.321127
H      -2.152614   -0.244371    0.123043
H      -1.943954   -2.572069   -0.343698
H       1.022664   -4.294733   -0.843275
