20

C       0.140272    0.690997   -0.570922
O       0.021943   -0.535312    0.134158
C       0.632802   -0.527377    1.416154
C       0.266483   -1.818841    2.147698
C       1.396264   -2.819441    1.790205
C       1.069406   -3.708512    0.585775
N       2.510462   -1.912786    1.529049
C       2.168213   -0.619842    1.256720
O       2.918901    0.268119    0.906207
H       1.185821    0.956490   -0.758805
H      -0.384825    0.556700   -1.519508
H      -0.334238    1.512103   -0.011952
H       0.355168    0.382629    1.964560
H       0.260077   -1.637669    3.225932
H      -0.720287   -2.177115    1.849432
H       1.634382   -3.451547    2.653432
H       0.764855   -3.091765   -0.263996
H       1.937435   -4.308660    0.292893
H       0.253045   -4.396214    0.829969
H       3.442472   -2.239259    1.322141
