15

O      -0.021533    1.412728   -0.107643
C       0.038848    0.013051   -0.028906
C       0.056768   -0.612336    1.407760
C      -1.446771   -0.220364    1.501683
C      -1.392356   -0.613379   -0.022401
C      -1.043274   -2.103177    0.124074
O      -1.550173   -3.082868   -0.359392
N       0.022530   -2.036320    1.023004
H       0.870438    1.758460    0.000092
H       0.764346   -0.415297   -0.731629
H       0.807052   -0.369137    2.159222
H      -2.081430   -0.819346    2.158916
H      -1.611543    0.845994    1.648618
H      -2.156119   -0.352844   -0.749824
H       0.176612   -2.780962    1.686626
