19

C       0.087819   -3.759478   -0.167185
C       0.058056   -2.555820   -0.071601
C       0.024651   -1.199639    0.035219
C      -0.007072    0.007029    0.129316
C      -0.012212    1.458460    0.234177
C       1.382823    2.076946    0.072751
C       2.084225    2.010401   -1.311743
C       2.596463    3.456980   -1.073083
C       1.498622    3.625469    0.012242
H       0.113559   -4.817242   -0.251336
H      -0.683298    1.875634   -0.529742
H      -0.434654    1.753101    1.205012
H       2.044159    1.676514    0.847850
H       2.820587    1.220386   -1.472062
H       1.351601    1.971599   -2.124807
H       3.599602    3.465364   -0.637717
H       2.580972    4.146944   -1.919554
H       0.589542    4.074835   -0.402001
H       1.757890    4.153890    0.932891
