17

C      -0.036177    1.481114    0.091308
C       1.359542    2.141718   -0.011894
C       2.189350    1.441109   -1.048757
C       1.975084    0.096080   -1.309362
N       2.915549   -0.270584   -2.216696
N       3.726405    0.746682   -2.573568
C       3.289427    1.784789   -1.854676
C       0.934247   -0.687793   -0.679865
C      -0.005543   -0.031841    0.017893
H      -0.532428    1.804696    1.011845
H      -0.669160    1.843669   -0.734312
H       1.247009    3.208158   -0.230760
H       1.862151    2.079786    0.964885
H       3.038361   -1.166523   -2.657658
H       3.785467    2.740084   -1.951563
H       0.926264   -1.769104   -0.774801
H      -0.811424   -0.579231    0.496996
