16

N      -0.021617    1.261573    0.145193
C       0.032218   -0.111417    0.129881
O       1.085964   -0.720952    0.098469
C      -1.279991   -0.794603    0.116134
C      -1.514393   -2.111576    0.181891
C      -3.046741   -2.160621    0.114764
C      -3.334947   -1.187333   -1.070905
C      -2.725885   -0.251030    0.015263
O      -3.415559   -1.063172    1.019959
H       0.854602    1.736832    0.296502
H      -0.857525    1.740203    0.435151
H      -0.813523   -2.929329    0.253500
H      -3.578970   -3.094065    0.287065
H      -2.797153   -1.324771   -2.010741
H      -4.403246   -1.017781   -1.221408
H      -2.933667    0.817178    0.076519
