17

C       0.087058    1.514401   -0.195495
C      -0.012262    0.028519    0.102553
N       1.274298   -0.717852    0.129146
C       0.494829   -0.596886    1.371676
C       1.181666    0.152875    2.491068
O       2.265178   -0.604701    3.002763
C      -1.138519   -0.630163   -0.516134
C      -2.072233   -1.166239   -1.053004
H       1.009790    1.932329    0.208501
H       0.087836    1.674794   -1.277576
H      -0.766471    2.053006    0.226979
H       1.144984   -1.637842   -0.283920
H      -0.042341   -1.484427    1.699279
H       1.514384    1.141926    2.149768
H       0.487782    0.302753    3.324626
H       2.845800   -0.778940    2.252368
H      -2.898949   -1.642832   -1.518997
