16

C      -0.026226    1.451835    0.026311
N      -0.043501   -0.004684   -0.001062
C      -1.184802   -0.709422   -0.157996
C      -1.181620   -2.067100   -0.180576
C       0.095113   -2.696298   -0.026947
N       0.181467   -4.055840   -0.078051
N       1.218878   -2.031258    0.133903
C       1.224267   -0.665106    0.150632
O       2.210927    0.031820    0.288628
H       0.611556    1.835139   -0.773368
H      -1.044718    1.824583   -0.098611
H       0.386274    1.805204    0.974116
H      -2.095627   -0.129950   -0.264903
H      -2.094863   -2.629378   -0.316595
H      -0.641691   -4.615592    0.060422
H       1.066558   -4.454516    0.191982
