16

N       0.257332    1.182168    0.479214
C       0.125608   -0.094760    0.021733
N       1.030642   -0.910513   -0.381787
C       2.414099   -0.462179   -0.396269
C       2.940118   -0.037003    0.913895
N       3.292651    0.329793    1.952883
C      -1.289383   -0.592157   -0.027579
C      -2.098475   -0.670831    1.200556
O      -2.312206    0.369867    0.244189
H       1.122803    1.498191    0.885567
H      -0.592371    1.645349    0.763871
H       3.043174   -1.279914   -0.761282
H       2.557406    0.382540   -1.089377
H      -1.491853   -1.288129   -0.836586
H      -2.891038   -1.412965    1.267547
H      -1.663749   -0.354008    2.146547
