14

C      -0.018689    1.503142    0.085458
C       0.002784    0.017503   -0.071090
C      -0.106895   -0.784824   -1.189965
C      -0.018346   -2.112615   -0.698972
N      -0.145452   -3.295519   -1.430773
N       0.140292   -2.141785    0.619710
N       0.140227   -0.828543    0.977662
H       0.911702    1.880846    0.525370
H      -0.143848    1.980569   -0.888406
H      -0.843912    1.832934    0.727176
H      -0.245561   -0.459406   -2.208567
H       0.336055   -3.265311   -2.319491
H       0.164497   -4.094254   -0.891467
H       0.245184   -0.592895    1.948735
