23

C       0.011822    1.575306    0.098912
C       0.031361    0.041264    0.091784
C       0.679039   -0.505294    1.371755
C      -1.394169   -0.512856   -0.119586
C      -1.450836   -1.991513   -0.349099
C      -0.900450   -2.798645   -1.545309
C      -2.026953   -3.861068   -1.291799
C      -2.498175   -3.004361   -0.110338
O      -1.385286   -2.875654    0.785189
H       1.021213    1.981882    0.219822
H      -0.403651    1.978139   -0.831141
H      -0.598508    1.953408    0.927934
H       0.640817   -0.283157   -0.764111
H       0.714514   -1.597070    1.377013
H       1.700877   -0.126599    1.480837
H       0.112038   -0.191290    2.256286
H      -2.018271   -0.269326    0.749553
H      -1.845099   -0.013019   -0.987279
H      -1.017221   -2.285657   -2.503413
H       0.132076   -3.139114   -1.438139
H      -2.750518   -3.907081   -2.109284
H      -1.705280   -4.872057   -1.030893
H      -3.488786   -2.914899    0.322762
