20

C       0.226810    1.510740    0.078696
N       1.273845    0.501035   -0.101295
C      -0.132200    0.060217    0.077875
C      -0.449874   -0.681349    1.302012
C      -1.352137   -1.644044    1.533836
C      -1.152505   -1.971568    3.020426
C      -1.028908   -0.525358    3.613001
C       0.227160   -0.504239    2.674007
C       0.414070   -2.003978    3.086516
H       0.272134    2.052028    1.019663
H      -0.088514    2.108894   -0.772691
H       1.531476    0.432917   -1.082242
H      -0.657041   -0.290627   -0.808928
H      -2.061233   -2.103581    0.859246
H      -1.775962   -2.740920    3.475376
H      -1.836029    0.178516    3.394733
H      -0.773633   -0.509329    4.677644
H       1.026879    0.228891    2.764051
H       0.806456   -2.127540    4.101345
H       0.935321   -2.657348    2.383282
