21

C      -0.013374    1.394180   -0.078140
O      -0.018310    0.008557    0.167680
C      -1.300059   -0.609768    0.063647
C      -1.757416   -0.770229   -1.374748
C      -1.978225   -1.997346   -1.847993
C      -1.770144   -3.174653   -0.921520
C      -2.456486   -2.833914    0.440392
C      -1.188300   -1.984207    0.738523
C      -0.412106   -2.970841   -0.179338
H       0.996538    1.755357    0.133348
H      -0.257251    1.642851   -1.121576
H      -0.722452    1.926761    0.576189
H      -2.029868    0.008585    0.617342
H      -1.895871    0.117283   -1.984026
H      -2.310575   -2.168338   -2.867845
H      -1.979426   -4.135512   -1.393799
H      -3.426365   -2.330890    0.401824
H      -2.515045   -3.702122    1.102916
H      -0.861623   -1.866464    1.773562
H      -0.111099   -3.866858    0.370037
H       0.428567   -2.579490   -0.754113
