16

C      -0.027697    1.473172    0.033926
C      -0.030194    0.019185    0.004580
C      -0.039625   -1.185399   -0.008725
C      -0.015541   -2.608053   -0.062899
C       0.807503   -3.463042   -1.053571
C      -0.427908   -4.405244   -1.130914
O      -0.714962   -5.317846   -1.849671
C      -1.193490   -3.597821   -0.111436
N      -0.371445   -3.413783    1.094184
H       0.820360    1.878345   -0.528741
H      -0.944572    1.881498   -0.405249
H       0.045144    1.846138    1.061265
H       0.977508   -2.993431   -2.026514
H       1.754062   -3.856433   -0.671379
H      -2.261359   -3.432488   -0.035995
H       0.281918   -4.180836    1.246690
