19

C      -0.022658    1.378232   -0.128100
C       0.044144   -0.105734   -0.018255
O      -0.439395   -0.906939   -1.120833
C      -0.397415   -2.040807   -0.201472
C      -0.355297   -1.085060    1.033011
C       1.130079   -0.927558    0.688773
C       1.140392   -2.277575   -0.054660
C       1.518087   -3.469998    0.805324
O       1.846638   -2.357112   -1.262157
H       0.620586    1.736183   -0.939166
H      -1.046193    1.709769   -0.327749
H       0.316636    1.840897    0.803240
H      -1.107533   -2.829133   -0.444910
H      -0.907602   -1.013816    1.958612
H       1.915517   -0.473989    1.281273
H       0.975181   -3.465655    1.753967
H       1.295916   -4.398956    0.271516
H       2.590769   -3.455043    1.019791
H       1.413434   -1.719147   -1.847032
