19

O       0.053822   -0.058572    0.018604
C      -0.003487    1.149272    0.049243
C      -1.306039    1.922307    0.114947
C      -1.240310    3.165558   -0.786895
N      -0.159977    4.024732   -0.316425
C       1.174567    3.471248   -0.488597
C       2.102961    3.801651    0.709620
N       1.707814    2.512892    1.329287
C       1.263176    1.997877    0.007542
H      -2.127771    1.253303   -0.152044
H      -1.443416    2.261218    1.148743
H      -1.132066    2.851174   -1.842526
H      -2.179476    3.723012   -0.716599
H      -0.215764    4.944320   -0.737217
H       1.596714    3.637145   -1.489344
H       3.159885    3.855979    0.412970
H       1.838067    4.686653    1.295928
H       2.454466    1.978815    1.759888
H       2.032234    1.430787   -0.533029
