22

C      -0.051182    1.573934    0.076065
C       0.011802    0.033318    0.058003
C       0.719658   -0.489543    1.324239
C      -1.394254   -0.551843   -0.041036
N      -2.227780   -0.120927    1.186428
H      -3.183592   -0.479947    1.183223
H      -1.742974   -0.440021    2.030035
H      -2.244497    0.902421    1.218196
C       0.764566   -0.448816   -1.203929
C       2.286863    0.030925   -1.351133
O       2.729766    0.755577   -0.426314
O       2.817115   -0.392418   -2.378756
H       0.984576    1.922379    0.016071
H      -0.609527    1.963887   -0.783846
H      -0.494190    1.984991    0.998905
H       0.285783   -0.102804    2.261811
H       0.716455   -1.585774    1.363321
H       1.754342   -0.138228    1.262446
H      -1.946451   -0.187116   -0.910139
H      -1.402146   -1.644126   -0.029007
H       0.770212   -1.545796   -1.236263
H       0.234395   -0.111790   -2.103802
