21

C       0.021252    1.576212   -0.041162
C       0.014695    0.066681    0.053016
C       0.924072   -0.699569   -0.970482
C       1.827792   -1.221079    0.192296
C       0.770595   -0.740776    1.178582
C       0.748088   -0.331359    2.642435
O      -0.605546   -0.836995    2.783445
C      -0.567369   -1.466105    1.478024
C      -1.319586   -0.662299    0.393094
H       1.040734    1.972377   -0.116209
H      -0.529123    1.913904   -0.928128
H      -0.454284    2.031647    0.834553
H       0.400401   -1.491013   -1.513398
H       1.427985   -0.060679   -1.699751
H       2.080810   -2.285419    0.204309
H       2.758115   -0.648949    0.270107
H       1.449299   -0.882375    3.286305
H       0.819415    0.739268    2.873327
H      -0.697070   -2.552003    1.540753
H      -2.095466   -0.023335    0.823793
H      -1.753064   -1.249291   -0.423119
