16

C      -0.230739    1.518012   -0.060416
C       0.099003    0.017984    0.044188
C       0.800622   -0.502383   -1.170007
C       2.045700   -0.949507   -1.344664
C       2.240447   -1.350242   -2.776116
O       0.988068   -1.093082   -3.407573
C       0.104595   -0.592106   -2.486200
O      -1.025781   -0.301547   -2.766002
H       0.681522    2.115145   -0.156255
H      -0.861364    1.708733   -0.931865
H      -0.765621    1.854375    0.832396
H       0.710787   -0.175844    0.931421
H      -0.837383   -0.539304    0.167622
H       2.827198   -1.031861   -0.599639
H       3.022150   -0.767648   -3.280435
H       2.487391   -2.413478   -2.891536
