19

C       0.068021    1.500977    0.287868
O       1.169245    2.197149   -0.295985
C       2.197125    1.454730   -0.913511
C       2.485377    0.128048   -0.204971
C       1.240285   -0.731326   -0.284426
C      -0.041170    0.034749   -0.078362
C       0.323286   -0.462018   -1.458698
C       0.756327    0.491136   -2.561539
O       1.945017    1.222657   -2.282778
H       0.140959    1.589268    1.382733
H      -0.838978    2.038797   -0.017743
H       3.070508    2.111857   -0.906692
H       3.336964   -0.346723   -0.702283
H       2.766299    0.317588    0.837998
H       1.315390   -1.746175    0.093049
H      -0.865789   -0.468011    0.419260
H      -0.266092   -1.299063   -1.820735
H       0.962936   -0.077126   -3.475214
H      -0.059777    1.193000   -2.791715
