20

C       0.295719    1.493843   -0.182323
O      -0.151780    0.163262   -0.397907
C       0.685914   -0.579783   -1.248036
C       1.932165   -1.255416   -0.566018
O       1.819929   -1.258497    0.837711
C       1.538690   -2.597194   -1.257868
C       0.173263   -1.981024   -1.579985
C      -1.177910   -2.481703   -1.246270
N      -0.729548   -2.380513   -2.650468
H       1.274329    1.513798    0.313713
H       0.364979    2.045794   -1.130608
H      -0.442005    1.979717    0.460062
H       0.955101    0.003435   -2.141760
H       2.914514   -0.854930   -0.830507
H       0.914603   -0.987033    1.041705
H       2.129062   -2.809568   -2.154068
H       1.546582   -3.468283   -0.599902
H      -1.299556   -3.497120   -0.878444
H      -1.901469   -1.762370   -0.874032
H      -1.142790   -1.558511   -3.086320
