15

C      -0.093155    1.496747   -0.013225
C      -0.019519   -0.016270   -0.051822
C       0.775440   -0.699655   -1.105878
N       1.259248   -0.690470    0.281742
C      -1.206393   -0.709474    0.504341
N      -1.685723   -1.850594    0.097654
O      -2.740359   -2.091756    0.907149
N      -2.871260   -1.032936    1.803322
N      -1.955039   -0.209861    1.559532
H       0.811136    1.926981   -0.453470
H      -0.954227    1.866736   -0.578989
H      -0.189498    1.858379    1.014420
H       0.464093   -1.671955   -1.473241
H       1.262194   -0.063024   -1.840101
H       1.982865    0.015446    0.400826
