15

O      -0.454204    0.195491    0.094552
C      -0.238670    1.362403   -0.007923
O       0.994321    1.884154    0.228638
C       1.163078    3.273755    0.011553
C       2.501657    3.769684    0.542087
C       2.816299    4.916913   -0.430635
O       2.184868    4.560230   -1.679459
C       1.240747    3.612775   -1.488203
O       0.583910    3.133945   -2.364476
H      -0.988285    2.126283   -0.276135
H       0.322475    3.836718    0.441055
H       2.476421    4.093315    1.583281
H       3.234520    2.964134    0.442659
H       2.399770    5.872616   -0.094256
H       3.881819    5.046705   -0.624958
