18

C      -0.024966    1.443841   -0.087076
C       1.342286    0.789627   -0.009363
N       2.186750    0.436436   -1.125890
C       2.292054   -1.037653   -1.177869
C       0.919118   -1.734435   -0.898964
O       0.758040   -2.132407    0.474601
C      -0.026665   -1.104526    1.118095
C       0.068372   -0.031450    0.069481
O      -0.090974   -0.775266   -1.130742
H      -0.316358    2.051011    0.763059
H      -0.406104    1.793217   -1.041561
H       1.880327    0.952441    0.922654
H       1.774168    0.765901   -1.990290
H       2.663237   -1.326118   -2.166029
H       3.018704   -1.378945   -0.432800
H       0.749186   -2.608785   -1.532322
H      -1.046288   -1.469556    1.290392
H       0.436552   -0.831566    2.070317
