19

C       0.091963    1.510783    0.140569
C      -0.011980   -0.005512    0.011657
O       0.736399   -0.667706    1.054326
C      -1.449593   -0.503216   -0.013839
O      -2.361388    0.153348    0.830458
C      -2.000898   -1.166473   -1.273679
O      -1.187290   -1.323139   -2.389610
C      -1.663580   -1.998787   -0.056293
O      -0.550541   -2.829772   -0.208425
H       1.142144    1.809738    0.175217
H      -0.378555    2.004964   -0.716465
H      -0.401838    1.860643    1.052796
H       0.473409   -0.322811   -0.913497
H       0.300705   -0.462232    1.890294
H      -2.648173    0.962728    0.392414
H      -3.047681   -0.986121   -1.506774
H      -0.643081   -2.104120   -2.204330
H      -2.473578   -2.397319    0.550371
H       0.146824   -2.458900    0.357072
