17

O      -0.011804    0.013398   -0.214880
C       0.025891    1.191259   -0.000946
O      -1.125975    1.917564    0.138149
C      -0.921604    3.223570    0.701532
C      -0.131691    3.069328    2.025508
C       1.131689    3.188911    1.159443
C       0.322026    3.967054    0.072473
C       1.011687    3.172984   -1.038376
C       1.258354    2.068149    0.045203
H      -1.893020    3.715162    0.690248
H      -0.243925    3.949514    2.665255
H      -0.321672    2.161958    2.605805
H       2.082049    3.527936    1.571629
H       0.233104    5.053290    0.040509
H       0.450626    2.892955   -1.933648
H       1.950929    3.650936   -1.328354
H       2.161192    1.463280   -0.001800
