16

C      -0.094370    1.613268    0.043386
C       0.064042    0.099808    0.032363
C       1.121288   -0.590517   -0.875476
O       1.275868   -0.620690   -2.060499
C       1.765622   -1.314536    0.278858
C       2.184980   -0.292137    1.315897
C       0.728198   -0.635943    1.226321
C       0.010868   -1.252024    2.293378
N      -0.587963   -1.740464    3.155018
H       0.834043    2.123009    0.315933
H      -0.384783    1.959611   -0.952874
H      -0.870970    1.920886    0.749909
H      -0.894803   -0.379726   -0.199363
H       2.143764   -2.328602    0.296138
H       2.718543   -0.708865    2.162889
H       2.523612    0.693360    1.013737
