16

N       0.268986    1.104038    0.009177
C      -0.095404   -0.176223   -0.280595
C       1.055419   -1.132503   -0.388122
O       2.198414   -0.812289   -0.169128
N      -1.261613   -0.661727   -0.492084
C      -2.413763    0.218868   -0.396827
C      -3.655246   -0.563169   -0.829039
O      -3.792441   -1.747141   -0.074174
H       1.234699    1.238327    0.269744
H      -0.407180    1.765412    0.348374
H       0.748811   -2.154315   -0.678701
H      -2.547837    0.557020    0.644253
H      -2.291173    1.119194   -1.021744
H      -4.558289    0.034601   -0.667140
H      -3.581734   -0.778014   -1.907670
H      -2.921995   -2.166177   -0.106114
