17

C      -0.058453    1.437888   -0.020397
C      -0.025537   -0.015556   -0.016998
C       0.022205   -1.221603   -0.014438
C       0.079931   -2.634267   -0.011465
N       1.180523   -3.374476   -0.024048
C       0.748343   -4.669997   -0.014911
C      -0.623596   -4.724727    0.003361
N      -1.051862   -3.421510    0.005572
C      -2.429170   -2.969524    0.022553
H       0.957570    1.846910   -0.030966
H      -0.581720    1.825754   -0.901728
H      -0.565100    1.830239    0.868623
H       1.444279   -5.495329   -0.021925
H      -1.320633   -5.546834    0.014745
H      -2.942915   -3.325482    0.920756
H      -2.435085   -1.879152    0.019639
H      -2.966464   -3.330368   -0.859784
