17

O       0.458516    1.191432    0.467853
C       0.080839   -0.118665    0.131143
C      -0.883220   -0.830726    1.069974
C      -1.375431   -0.257896   -0.233478
C       1.072244   -0.894225   -0.565893
C       1.939827   -1.525286   -1.117956
C       2.937218   -2.289197   -1.812864
C       4.372520   -1.951668   -1.731593
O       3.856456   -3.071566   -1.026877
H       1.213535    1.131900    1.064326
H      -0.798669   -1.906263    1.169766
H      -1.129404   -0.292047    1.977900
H      -1.946558    0.662349   -0.195402
H      -1.634110   -0.935336   -1.037812
H       2.593269   -2.799292   -2.712135
H       5.018141   -2.178634   -2.579233
H       4.679788   -1.107947   -1.116547
