20

C      -0.142845    1.356098    0.004266
O      -0.081268   -0.050388   -0.108811
C       0.686701   -0.563558   -1.182320
C       0.159053   -0.140925   -2.544545
C       2.226538   -0.475033   -0.941447
N       2.209613   -1.859260   -0.418785
C       0.852206   -2.104548   -0.944382
C      -0.108121   -2.723562    0.055385
O      -1.094666   -3.337447   -0.260337
H       0.856133    1.815309    0.014945
H      -0.730523    1.815794   -0.801407
H      -0.632867    1.570181    0.956795
H       0.275888    0.935468   -2.705898
H       0.702784   -0.654009   -3.342278
H      -0.902696   -0.392052   -2.631329
H       2.790565   -0.335739   -1.873067
H       2.561018    0.270237   -0.212069
H       2.931595   -2.472096   -0.777937
H       0.789435   -2.667162   -1.884316
H       0.184681   -2.561254    1.113782
