21

C      -0.272742    1.562296   -0.042507
C       0.082447    0.066853    0.036872
C       0.771788   -0.453646   -1.189637
C       2.014318   -0.944903   -1.258491
C       2.419905   -1.395460   -2.637513
C       2.929788   -2.839940   -2.755218
C       1.127117   -1.170169   -3.447211
O       0.952441   -1.506741   -4.589197
C       0.098081   -0.478115   -2.542762
H       0.626139    2.170713   -0.183393
H      -0.952106    1.770222   -0.875128
H      -0.765220    1.891857    0.877174
H       0.719707   -0.112766    0.910136
H      -0.842077   -0.504829    0.201332
H       2.682246   -1.025604   -0.406251
H       3.188431   -0.730205   -3.061771
H       2.217124   -3.543673   -2.313638
H       3.062557   -3.102188   -3.808123
H       3.887818   -2.959909   -2.240688
H      -0.853778   -1.025050   -2.556731
H      -0.123942    0.522134   -2.938816
