20

C      -0.259450    1.073200   -1.696384
C      -0.034239   -0.168661   -0.861448
C       1.315085   -0.634723   -0.381852
C       2.619561    0.066130   -0.698009
C       0.306321   -0.074571    0.629983
C       0.492464    1.279074    1.312072
O      -0.739966    1.916924    1.586269
C      -0.343628   -1.025322    1.496837
N      -0.879442   -1.752823    2.221565
H       0.483666    1.851891   -1.514508
H      -0.215629    0.820778   -2.760967
H      -1.243414    1.502354   -1.487280
H      -0.728088   -0.971246   -1.095120
H       1.421254   -1.714454   -0.323195
H       2.515348    1.147810   -0.801894
H       3.364365   -0.124782    0.081233
H       3.023703   -0.313813   -1.642261
H       1.089270    1.142943    2.225882
H       1.043164    1.959315    0.661494
H      -1.227995    1.366017    2.208920
