25

C       1.499400    1.507743   -0.501574
C       1.577822    0.012146   -0.183776
C       0.457188   -0.467827    0.747159
C       0.543859   -1.960278    1.058298
C       1.696450   -2.469707    1.941148
C       1.566648   -1.967226    3.352526
C       0.703652   -3.115219    2.909251
C      -0.482111   -2.635116    2.057691
C      -1.576416   -1.807414    2.724024
H       1.569830    2.110362    0.410957
H       2.309525    1.819310   -1.168667
H       0.550967    1.759939   -0.989318
H       1.542734   -0.564057   -1.118269
H       2.548487   -0.214585    0.275705
H       0.487509    0.118460    1.674141
H      -0.515925   -0.250784    0.284819
H       0.528746   -2.512116    0.111736
H       2.632049   -2.872649    1.571425
H       2.385133   -2.238361    4.012106
H       1.142000   -0.990428    3.568247
H       0.765587   -4.083723    3.392184
H      -0.947028   -3.489689    1.555721
H      -1.173928   -0.950685    3.272619
H      -2.290035   -1.423783    1.986503
H      -2.137318   -2.420243    3.438619
