18

C      -1.161095    1.033088   -0.089274
C      -0.127259    0.096952    0.523554
O       0.111976   -1.058996   -0.287405
C      -0.785783   -2.054931   -0.201629
C      -1.919671   -2.276114    0.559146
C      -2.353433   -3.564883    0.142858
N      -3.428318   -4.287177    0.665580
N      -1.574912   -4.090826   -0.791996
N      -0.606725   -3.139072   -0.983587
H      -1.279564    1.919256    0.542464
H      -0.841718    1.357950   -1.083495
H      -2.133349    0.542678   -0.180913
H       0.846194    0.588951    0.595241
H      -0.419491   -0.221312    1.531610
H      -2.358251   -1.635597    1.304477
H      -4.253686   -3.720777    0.810472
H      -3.648790   -5.082853    0.079230
H       0.136571   -3.295816   -1.640168
