21

O      -0.169015    1.418843    0.215567
C      -0.023477    0.010996    0.115048
C      -1.419550   -0.595977    0.071504
C      -1.396001   -2.112299   -0.055611
O      -2.728359   -2.579942   -0.063355
C      -2.827581   -3.978157   -0.201755
C      -4.282104   -4.359095   -0.184731
C      -4.711803   -5.705633    0.207331
O      -4.876487   -4.598359    1.091601
H       0.708615    1.809817    0.252656
H       0.536011   -0.267197   -0.793839
H       0.534753   -0.394286    0.975279
H      -1.961698   -0.318530    0.981406
H      -1.970190   -0.169045   -0.773316
H      -0.879598   -2.417312   -0.983266
H      -0.839113   -2.564653    0.783645
H      -2.369634   -4.306312   -1.152524
H      -2.306127   -4.499224    0.617916
H      -4.908281   -3.789058   -0.871500
H      -5.628440   -6.120906   -0.208783
H      -3.968925   -6.442005    0.513333
