21

O       0.054006    1.465120   -0.001031
C       0.015408    0.031083    0.026259
C      -1.430091   -0.495263    0.186670
C      -2.194499   -0.598568   -1.148996
C      -1.431313   -1.581110   -2.028527
C      -1.384812   -1.540679   -3.591633
C       0.172318   -1.708489   -3.510768
C       0.049048   -1.272273   -2.065815
C       0.712036   -0.515321   -1.199889
H      -0.213278    1.738190   -0.885208
H       0.576767   -0.226173    0.932721
H      -1.394731   -1.490632    0.648980
H      -1.944666    0.168449    0.887435
H      -3.231455   -0.905864   -0.977573
H      -2.229442    0.385440   -1.636051
H      -1.616856   -2.610982   -1.693386
H      -1.945209   -2.306583   -4.132053
H      -1.660083   -0.554871   -3.976301
H       0.468004   -2.758558   -3.614598
H       0.794670   -1.104862   -4.176320
H       1.728962   -0.173446   -1.378306
