21

C      -0.011674    1.601134    0.391348
N      -0.080286    0.154285    0.362999
C      -0.974573   -0.524837   -0.419791
O      -1.778467    0.036196   -1.142702
C      -0.842918   -2.022734   -0.310516
N      -2.048139   -2.826406   -0.587046
C      -0.904204   -2.952285   -1.493821
C      -1.132461   -2.422911   -2.894313
C      -0.062367   -4.212590   -1.418693
H      -0.205382    1.991063    1.397027
H       0.967831    1.963514    0.058529
H      -0.779243    1.973170   -0.288264
H       0.551558   -0.369888    0.944374
H      -0.200460   -2.360009    0.502940
H      -2.084403   -3.611314    0.059786
H      -1.749036   -1.525518   -2.866962
H      -0.178111   -2.186555   -3.378271
H      -1.635048   -3.185604   -3.499927
H      -0.548057   -5.027458   -1.968221
H       0.924582   -4.057096   -1.867784
H       0.084238   -4.541216   -0.384142
