18

O      -0.143199    1.390309    0.010198
C      -0.017833   -0.020333    0.007995
C       0.672393   -0.542078   -1.257006
C      -0.062213   -0.106585   -2.540096
C       0.621093   -0.538996   -3.751887
C       1.207304   -0.907213   -4.734410
C       0.710130   -0.525411    1.275543
C       0.066358   -0.087886    2.511486
N      -0.444589    0.246867    3.491847
H       0.740038    1.777158   -0.015330
H      -1.050436   -0.387277    0.037008
H       1.706150   -0.171965   -1.287328
H       0.734347   -1.635510   -1.222079
H      -1.083240   -0.510022   -2.528382
H      -0.168997    0.983750   -2.533650
H       1.712158   -1.225314   -5.612662
H       0.755672   -1.620273    1.269224
H       1.747900   -0.167472    1.271236
