18

N       0.188203    1.312992   -0.583627
C       0.071063    0.147993   -0.149453
O       1.081742   -0.787790    0.229592
C       0.020833   -1.517355    0.963786
C      -0.857823   -2.813118    1.001018
C      -1.997411   -1.669477    1.105218
C      -1.725373   -1.075878    2.490739
C      -0.177454   -0.946459    2.385531
C      -1.029498   -0.895632    0.111004
H       1.170078    1.584571   -0.663540
H      -0.901032   -3.362042    0.061286
H      -0.757188   -3.490637    1.853875
H      -3.025086   -1.896188    0.823389
H      -2.218749   -0.112173    2.636218
H      -2.050311   -1.747924    3.289924
H       0.362695   -1.527848    3.136977
H       0.161392    0.089829    2.447461
H      -1.075921   -1.438073   -0.839388
