17

C      -0.505073    1.370920   -0.069193
C       0.069991   -0.025096    0.021239
O       1.223929   -0.229734   -0.897795
C       2.085278   -0.330247    0.230158
C       2.834968    0.770988    0.999620
C       2.217884   -0.123377    2.102910
C       2.419647   -1.461765    1.260035
O       1.061602   -1.913562    1.383443
C       0.943155   -0.450644    1.234560
H       0.238906    2.136897    0.159790
H      -0.878685    1.549863   -1.081845
H      -1.339819    1.473252    0.631810
H      -0.686607   -0.790143   -0.174089
H       3.925521    0.788003    0.930899
H       2.428956    1.781745    0.926487
H       2.298639   -0.028587    3.187028
H       3.227445   -2.196257    1.334794
