16

O      -0.012169    1.443163    0.217768
C       0.032949    0.033444    0.101443
C      -1.365959   -0.525790    0.007825
N      -2.302533   -0.353675    1.151423
C      -2.635505   -1.805458    1.144743
C      -1.865492   -1.981581   -0.175637
O      -2.625031   -1.571524   -1.359189
C      -2.148049   -0.279805   -1.291312
O      -2.337074    0.617483   -2.049420
H      -0.493963    1.782872   -0.547115
H       0.621820   -0.293852   -0.770142
H       0.537334   -0.337786    1.000883
H      -1.850168   -0.012974    1.991393
H      -2.171847   -2.379169    1.956306
H      -3.706550   -2.024511    1.111800
H      -1.271238   -2.869789   -0.377843
