18

C       0.200432    1.481846    0.079246
N       0.053533    0.032495    0.043447
C       0.009689   -0.678598    1.217206
O       0.035643   -0.193150    2.324579
C      -0.010471   -0.657462   -1.233979
C      -1.301276   -0.346821   -2.027640
N      -2.447317   -0.794696   -1.247865
C       1.180481   -0.370022   -2.056337
N       2.098916   -0.127305   -2.713714
H       1.076115    1.793783   -0.498728
H      -0.684491    1.987694   -0.322723
H       0.327409    1.765679    1.123578
H      -0.059632   -1.767500    1.035070
H      -0.023279   -1.731621   -1.019024
H      -1.306034    0.718518   -2.306893
H      -1.262645   -0.918288   -2.960214
H      -2.616331   -0.166195   -0.469044
H      -3.285205   -0.786277   -1.818876
