15

N       0.123535    1.363048    0.097678
C      -0.007605    0.007040    0.028096
C      -1.193662   -0.670109    0.007015
N      -2.403260    0.087458   -0.009244
N      -1.209027   -2.037328   -0.022702
C      -0.090560   -2.687549   -0.026349
C       1.214521   -2.047758    0.009801
N       2.322582   -2.665213    0.013950
O       1.172838   -0.646178    0.036430
H       0.977315    1.746103   -0.280437
H      -0.730623    1.849740   -0.139046
H      -2.859088    0.067105    0.900315
H      -3.058965   -0.332065   -0.662297
H      -0.094533   -3.772135   -0.062868
H       3.109064   -2.016432    0.042046
