22

C      -0.100493    1.548825    0.055448
C      -0.000568    0.017985   -0.014634
C       0.799858   -0.487370   -1.200045
C       1.797823   -1.292875   -0.838835
C       1.855076   -1.444495    0.651814
C       2.389385   -2.715358    1.258570
N       2.132727   -0.123068    1.302759
C       0.734313   -0.610863    1.183975
C      -0.057587   -0.913194    2.429501
H       0.896361    1.982325    0.166174
H      -0.561656    1.955371   -0.850529
H      -0.712021    1.864043    0.907937
H      -1.021349   -0.392207   -0.058709
H       0.577702   -0.176268   -2.215534
H       2.508627   -1.768655   -1.505450
H       3.460178   -2.824412    1.049767
H       2.261766   -2.734825    2.345176
H       1.881116   -3.592915    0.844161
H       2.439569   -0.299521    2.260410
H      -0.407946    0.012246    2.902445
H      -0.940481   -1.520123    2.199672
H       0.538150   -1.455203    3.170479
