20

C       0.185927    1.471295   -0.101550
C       0.491930   -0.013695   -0.048565
O       0.219113   -0.569415   -1.336328
C       0.467627   -1.920064   -1.426975
C       0.747440   -2.472195   -2.782654
C       0.742838   -1.584184   -4.005670
C       1.892181   -2.405236   -1.758267
C       2.936894   -1.439122   -1.918418
N       3.787175   -0.662069   -2.036271
H       0.820449    1.964271   -0.842813
H      -0.860143    1.641147   -0.371561
H       0.372443    1.928947    0.874283
H       1.543955   -0.188321    0.213908
H      -0.131829   -0.518932    0.705607
H      -0.075950   -2.539430   -0.711133
H       0.388599   -3.483757   -2.950382
H       1.083884   -0.576438   -3.765397
H       1.392811   -1.994689   -4.784059
H      -0.270889   -1.509686   -4.411541
H       2.216089   -3.339708   -1.312269
