19

C       0.171763    1.002787   -0.309232
O      -0.440072   -0.004370    0.475768
C       0.441364   -0.630577    1.346632
C       0.114853   -1.974140    1.887673
C      -0.579091   -2.821282    0.814005
C       0.702865   -2.702633   -0.090584
C       0.583486   -2.259250   -1.468906
C       0.498849   -1.930399   -2.623184
C       1.342805   -1.773123    0.960324
H       0.949734    0.586695   -0.961217
H      -0.612938    1.445775   -0.926535
H       0.613885    1.788253    0.322558
H       0.905688    0.047157    2.067691
H       0.085233   -2.176366    2.951505
H      -0.768912   -3.851098    1.119483
H      -1.488557   -2.386373    0.398047
H       1.226788   -3.663681   -0.077777
H       0.414297   -1.631314   -3.638359
H       2.400052   -1.773542    1.200350
