17

C       0.101113    1.552347    0.201711
C       0.003754    0.026207    0.015864
C      -1.395496   -0.490428   -0.072399
C      -2.195243   -0.763177   -1.172032
N      -1.806604   -0.654211   -2.528454
C      -3.413552   -1.230781   -0.627950
N      -3.388343   -1.252728    0.703374
N      -2.166826   -0.787342    1.012502
H       1.146394    1.873628    0.249475
H      -0.378857    2.081160   -0.627658
H      -0.394046    1.871102    1.124447
H       0.522790   -0.264892   -0.904188
H       0.530740   -0.473249    0.838918
H      -1.617286    0.304161   -2.800149
H      -2.528371   -1.008700   -3.143998
H      -4.297069   -1.561398   -1.156341
H      -1.906734   -0.711770    1.981227
