19

C       0.094193    1.588372   -0.136959
C       0.050762    0.073815   -0.004680
N       1.105519   -0.657684   -0.726590
C       1.650763   -1.268773    0.369299
O       2.582007   -2.020116    0.514913
C       0.620999   -0.585053    1.306739
C       1.177786    0.298163    2.394981
C       2.307830   -0.170667    3.235864
N       2.499680    0.940549    2.284410
H       1.067113    1.990182    0.156088
H      -0.111433    1.890512   -1.169428
H      -0.671158    2.045658    0.498665
H      -0.950301   -0.298306   -0.253874
H       1.313176   -0.749364   -1.710756
H      -0.077619   -1.311171    1.734969
H       0.436537    0.945044    2.862082
H       2.352930    0.108263    4.284661
H       2.748092   -1.131272    2.985382
H       2.994505    0.583819    1.469487
