21

C       0.440107    0.673533   -0.550514
C      -0.129397   -0.026921    0.680145
O      -0.324324    0.881991    1.759701
C      -1.439173   -0.785389    0.396171
C      -1.282240   -2.069928   -0.390268
O      -0.268855   -2.351497   -0.999829
C      -2.440108   -3.075056   -0.389697
C      -3.750824   -2.461523   -0.901596
O      -2.097666   -4.194249   -1.160623
H       1.355100    1.210304   -0.285876
H       0.665302   -0.051660   -1.334974
H      -0.280078    1.400625   -0.949758
H       0.606291   -0.747903    1.052403
H      -0.816799    1.638688    1.423053
H      -1.929560   -1.012653    1.350148
H      -2.141182   -0.139047   -0.151618
H      -2.585535   -3.371466    0.665399
H      -3.620181   -2.068300   -1.914425
H      -4.514163   -3.242412   -0.936869
H      -4.108104   -1.659942   -0.248672
H      -1.184709   -4.034723   -1.450674
