19

C      -0.825977   -0.433214   -1.113451
C      -1.085032    0.928636   -0.572792
N      -0.089121    0.049597    0.047901
C      -0.408797   -0.503949    1.319755
C      -0.339390   -1.952406    1.669160
C      -1.641942   -1.207207    1.918654
C      -1.537671   -0.260011    3.147561
N      -0.212209   -0.442130    3.799215
C      -0.350438    0.405903    2.586293
H      -1.601819   -1.179798   -0.955829
H      -0.238571   -0.569017   -2.016576
H      -0.687586    1.806040   -1.073926
H      -2.025381    1.077995   -0.046763
H      -0.385818   -2.613405    0.808245
H       0.266750   -2.308712    2.492884
H      -2.579488   -1.511391    1.471499
H      -2.377178    0.155092    3.689908
H      -0.182026    0.189795    4.599377
H      -0.056502    1.447460    2.578480
