14

N       0.046224    1.312464   -0.152266
C      -0.032087   -0.029662   -0.068276
C      -1.159501   -0.789091   -0.026615
C      -0.998557   -2.204011    0.038340
O      -2.133483   -2.934957    0.074806
N       0.114715   -2.863859    0.064946
O       1.285467   -2.069379    0.027854
C       1.274706   -0.715445   -0.030090
N       2.347991   -0.027990   -0.049103
H       0.970513    1.714046   -0.100019
H      -0.769272    1.893850   -0.084960
H      -2.158029   -0.372176   -0.045399
H      -1.867203   -3.864810    0.116126
H       3.173012   -0.625779   -0.014583
