17

N      -0.225866    1.170132   -0.087971
C      -0.044546   -0.066217    0.013572
N       1.159924   -0.885218   -0.078075
C       1.170730   -1.699647    1.171189
C       0.255228   -2.115144    0.099371
C      -1.008830   -1.252556    0.111475
C      -2.173724   -1.354167    1.114189
C      -3.056397   -1.443993   -0.145186
O      -1.891107   -1.421135   -1.004538
H       0.664170    1.656092   -0.230510
H       2.097495   -2.250092    1.297346
H       0.777881   -1.257930    2.084212
H       0.390954   -2.995701   -0.516164
H      -2.154871   -2.249461    1.738140
H      -2.319482   -0.470856    1.736404
H      -3.634014   -2.365602   -0.274754
H      -3.704785   -0.579914   -0.324144
