12

N      -0.065600    1.263785    0.179989
C      -0.017493    0.025268   -0.029873
O      -1.153514   -0.708874    0.180547
C      -1.082933   -2.055155    0.090716
N       0.040961   -2.762515    0.147615
N      -0.407286   -4.013643    0.034361
N      -1.714776   -4.168987   -0.077564
C      -2.181315   -2.920996   -0.046840
H       0.834564    1.686895   -0.038033
H       0.824589   -0.576491   -0.377348
H       0.222812   -4.798548    0.046545
H      -3.232235   -2.698535   -0.119502
