20

C      -0.765143    0.367231    0.130795
C       0.566955   -0.376156   -0.065446
C       1.399450   -0.520779    1.198107
O       2.555202   -0.163085    1.252650
C       0.727411   -1.130811    2.440272
N       1.656804   -1.487838    3.498853
C       2.338057   -2.757817    3.269020
C       1.448754   -3.922909    3.675346
O       1.431551   -4.994740    3.128633
H      -0.602015    1.374792    0.526001
H      -1.285038    0.465129   -0.826012
H      -1.433756   -0.161860    0.815866
H       0.362969   -1.388604   -0.441043
H       1.191497    0.128788   -0.807068
H       0.005648   -0.390685    2.814605
H       0.130042   -2.003747    2.149328
H       2.352755   -0.750880    3.552772
H       2.699606   -2.923479    2.242933
H       3.215088   -2.798463    3.929808
H       0.802017   -3.694589    4.553295
