14

O       0.146915    1.330116    0.043445
C       0.027489   -0.059436   -0.036297
C      -1.414576   -0.507345    0.056926
O      -2.307540    0.300345    0.195696
C      -1.764528   -2.009239   -0.008020
O      -3.127883   -2.197678    0.257011
C      -1.357044   -2.542449   -1.314480
C      -1.025035   -2.969938   -2.387157
H      -0.751136    1.670635    0.167407
H       0.445880   -0.444396   -0.978041
H       0.585008   -0.558047    0.775271
H      -1.175080   -2.514728    0.773912
H      -3.527075   -1.314225    0.209594
H      -0.737402   -3.358206   -3.333500
