19

C      -0.142644    1.535090    0.153613
C       0.012243    0.002707    0.043041
N       0.609095   -0.501936   -1.193681
C      -0.205931   -0.329065   -2.390994
C       0.477849   -0.995424   -3.592731
C      -0.423835   -1.025057   -4.806744
O      -0.149849   -0.557984   -5.880890
C       0.803738   -0.500012    1.180368
N       1.433134   -0.863292    2.078240
H       0.833864    2.024227    0.089130
H      -0.777513    1.910245   -0.652785
H      -0.600559    1.811005    1.107469
H      -0.982721   -0.455079    0.123937
H       1.527538   -0.088609   -1.324781
H      -1.174188   -0.813963   -2.206943
H      -0.422719    0.723979   -2.638496
H       1.406816   -0.483140   -3.861083
H       0.718300   -2.030647   -3.316080
H      -1.403619   -1.531007   -4.635336
