17

C      -0.200605    1.392629    0.175194
C       0.091030   -0.069246   -0.006001
N       1.274505   -0.512424   -0.110118
O      -1.078338   -0.772323   -0.033347
C      -1.008514   -2.183346   -0.199917
C      -2.415446   -2.711018   -0.222853
C      -2.709872   -4.090626    0.180251
O      -3.018245   -2.993141    1.038396
H       0.733584    1.951676    0.194852
H      -0.833692    1.756021   -0.640192
H      -0.749813    1.553822    1.107885
H       1.314097   -1.524074   -0.223314
H      -0.499590   -2.426669   -1.144141
H      -0.453502   -2.643808    0.627596
H      -3.075039   -2.221667   -0.939583
H      -3.563871   -4.605736   -0.256115
H      -1.902980   -4.738505    0.521366
