23

C      -0.055646    1.225011   -0.759391
O       0.051815   -0.020173   -0.096987
C      -1.194330   -0.687123    0.145151
C      -1.036982   -2.107900   -0.404997
O      -0.611798   -2.095611   -1.751689
C      -1.531908   -0.682101    1.638970
C      -1.692904    0.700006    2.235641
C      -2.999264    1.445738    2.103626
C      -2.563087    0.911904    3.446806
H       0.960976    1.606546   -0.889237
H      -0.524259    1.118926   -1.748449
H      -0.634818    1.954111   -0.177243
H      -1.988541   -0.179966   -0.420224
H      -0.330665   -2.663584    0.234107
H      -1.998224   -2.631195   -0.373028
H       0.174941   -1.536581   -1.756474
H      -2.458448   -1.253821    1.784990
H      -0.740716   -1.223539    2.173784
H      -0.792177    1.304886    2.191986
H      -2.974743    2.517858    1.941904
H      -3.821705    0.943066    1.604091
H      -3.093721    0.053115    3.845687
H      -2.237165    1.619322    4.201356
