15

O      -0.155414    1.461394   -0.065114
C      -0.085486    0.080804    0.144072
C       0.291789   -0.691985   -1.125047
C       0.240862   -0.038807   -2.435541
O       1.488756   -0.260337   -1.766281
C       0.938015   -0.221460    1.232090
O       1.678474    0.634503    1.659388
C       1.029608   -1.638674    1.798507
O       0.299672   -2.531617    1.456045
H       0.647716    1.837335    0.325849
H      -1.063280   -0.296411    0.478016
H       0.162944   -1.770837   -1.052428
H       0.077221   -0.643928   -3.325539
H      -0.073318    0.999309   -2.486406
H       1.823667   -1.751480    2.564286
