21

C      -0.042730    1.514432    0.072233
C      -0.045271   -0.012682    0.017953
C      -1.430918   -0.565232   -0.295743
O      -1.850274   -0.239566   -1.621447
C       1.100335   -0.587790   -0.883949
O       1.650616    0.227806   -1.890529
C       1.989603   -0.752639    0.363155
C       0.708907   -0.657303    1.233441
O       0.747679    0.004339    2.473028
H       0.963847    1.924910    0.193637
H      -0.427937    1.940373   -0.859666
H      -0.665169    1.871092    0.899930
H      -1.408248   -1.660474   -0.258598
H      -2.167890   -0.229294    0.449792
H      -2.152750    0.673080   -1.620259
H       0.802261   -1.564104   -1.290948
H       1.008184    0.264551   -2.607626
H       2.612134   -1.645391    0.447802
H       2.622244    0.132067    0.490680
H       0.304145   -1.650718    1.451950
H       1.187274    0.851405    2.347134
