16

N       0.064781   -1.149459    0.026849
C      -0.007986    0.007010    0.003345
C      -0.051662    1.419525   -0.049162
C      -1.127719    2.227669   -0.007078
C      -0.616734    3.651724    0.040637
C       0.091616    3.782739    1.427166
O       1.225094    2.912157    1.317756
C       1.170256    2.348824   -0.013481
C       0.651864    3.527816   -0.847698
H      -2.162515    1.926173    0.088907
H      -1.332160    4.440729   -0.183145
H       0.432012    4.810363    1.602479
H      -0.545043    3.469186    2.261293
H       2.137224    1.907687   -0.242630
H       0.424151    3.271608   -1.882899
H       1.314148    4.395845   -0.800534
