14

N      -0.420955    0.706241   -1.196573
C      -0.119450   -0.030964   -0.070205
O       0.617813    0.336264    0.805641
N      -0.846853   -1.249457   -0.046290
C      -0.659403   -2.287259    0.842982
O       0.203141   -2.369241    1.674868
C      -1.697137   -3.439159    0.718073
C      -2.592307   -3.370330   -0.427805
N      -3.268220   -3.245034   -1.357941
H       0.161498    1.520708   -1.315159
H      -0.685491    0.236572   -2.048513
H      -1.610901   -1.342955   -0.700742
H      -1.130054   -4.373850    0.700666
H      -2.280983   -3.440713    1.644577
