19

O       0.066696    1.429818    0.213439
C      -0.033953    0.042479    0.001071
C      -1.416679   -0.609600   -0.011516
C      -2.101408   -0.444892   -1.353413
C      -1.671402    0.699421   -2.267145
C      -0.170412    0.402381   -2.536653
O       0.687486    1.548103   -2.498794
C       0.234581   -0.566042   -1.419180
C      -1.004445   -1.467811   -1.203408
H       0.430026    1.815203   -0.595763
H       0.592820   -0.484098    0.733162
H      -1.979974   -0.903272    0.866608
H      -3.127949   -0.792484   -1.388556
H      -2.253048    0.711466   -3.194482
H      -1.781336    1.673899   -1.781475
H      -0.059020   -0.101209   -3.508133
H       0.353076    2.200264   -3.122519
H       1.212621   -1.021604   -1.569510
H      -1.088682   -2.534025   -1.360386
