18

C      -0.005394    1.531896   -0.070676
C      -0.037463    0.025661    0.005062
C       1.191663   -0.766106   -0.197686
N       0.626780   -0.606081    1.177470
C      -0.138423   -1.770003    1.532634
O       0.098147   -2.452304    2.487176
C      -1.274639   -1.990762    0.520049
C      -1.363299   -0.689417   -0.291185
O      -2.400960    0.161680    0.176232
H       0.977173    1.903693    0.229257
H      -0.205737    1.866143   -1.094413
H      -0.763782    1.967209    0.581720
H       1.133234   -1.748796   -0.659594
H       2.140089   -0.258333   -0.341515
H      -1.028255   -2.863293   -0.094086
H      -2.205579   -2.217105    1.044022
H      -1.477421   -0.872528   -1.369262
H      -3.243279   -0.259560   -0.019517
