21

C      -0.285663    1.520134   -0.016954
C       0.064137    0.031129    0.046919
C       0.627645   -0.506156   -1.272848
C       0.981190   -1.997857   -1.208336
C       1.539979   -2.547640   -2.513627
C       1.262086   -3.961590   -2.909973
N       0.628286   -2.858837   -3.637415
C       2.802485   -1.960527   -2.924249
N       3.820914   -1.492003   -3.206696
H       0.596482    2.122957   -0.258110
H      -1.040378    1.717159   -0.786309
H      -0.682726    1.876912    0.938201
H       0.795045   -0.140764    0.847986
H      -0.829324   -0.544953    0.323230
H      -0.099710   -0.337631   -2.078425
H       1.523598    0.063927   -1.548637
H       1.711795   -2.171006   -0.408351
H       0.090806   -2.585677   -0.949881
H       2.001983   -4.516846   -3.477529
H       0.671250   -4.554090   -2.216186
H      -0.331134   -2.728756   -3.323199
