16

N      -0.172418    1.282512   -0.087636
C      -0.048165    0.021889   -0.002281
N       1.093175   -0.770703    0.042599
C       0.859688   -2.145404    0.028335
O       1.720664   -2.986096    0.064813
C      -0.653721   -2.333313   -0.053506
C      -1.214800   -0.923915    0.036099
C      -2.429811   -0.518448    0.795086
N      -2.441942   -0.547086   -0.669843
H       0.721541    1.771152   -0.118075
H       2.034936   -0.406618    0.051019
H      -0.904680   -2.810558   -1.005764
H      -0.985485   -2.999870    0.746196
H      -3.026729   -1.288970    1.276143
H      -2.400050    0.444681    1.295896
H      -2.316484    0.404395   -1.016722
