20

N      -0.022769    1.546566   -0.172947
C      -0.019318    0.090419   -0.006248
C      -1.445742   -0.438147    0.230465
C      -2.071795    0.117502    1.510876
N      -3.432045   -0.383083    1.658072
C      -3.588778   -1.638254    2.387581
C      -3.994451   -0.343775    3.002016
C       0.605653   -0.618863   -1.145476
N       1.099420   -1.133049   -2.056075
H       0.926625    1.889803   -0.283276
H      -0.518980    1.791188   -1.025964
H       0.587734   -0.133897    0.880130
H      -2.077758   -0.178005   -0.626220
H      -1.414218   -1.531973    0.275317
H      -1.435518   -0.145165    2.378220
H      -2.107652    1.209322    1.459907
H      -4.334417   -2.325305    1.998472
H      -2.692193   -2.113884    2.783829
H      -3.368877    0.040080    3.806599
H      -5.042496   -0.066451    3.068818
