16

C       0.010073    1.535453   -0.081527
C      -0.022190    0.015736    0.078390
N      -1.391000   -0.517445    0.047289
N      -1.956494   -0.756693    1.221419
C      -3.177894   -1.220373    1.205900
C      -3.844400   -1.460498   -0.027677
N      -3.305684   -1.225779   -1.186022
C      -2.019376   -0.698326   -1.217236
O      -1.426118   -0.399357   -2.229968
H       1.045348    1.886664   -0.043834
H      -0.417705    1.825676   -1.043345
H      -0.547792    2.023516    0.723059
H       0.522483   -0.463856   -0.736915
H       0.399314   -0.294459    1.035750
H      -3.637214   -1.417798    2.166597
H      -4.856169   -1.867458   -0.018988
