17

C      -0.080869    1.450732    0.071508
C       1.291517    0.767001   -0.065127
C       2.044017    0.409329    1.172434
C       1.409405   -0.512901    1.906067
C       0.073717   -0.877334    1.295487
O      -0.064155   -2.213377    0.783517
C      -0.058649   -2.120189   -0.628622
O      -0.533287   -0.829644   -0.974354
C       0.002296   -0.024813    0.028780
H      -0.342713    1.939530    1.005372
H      -0.444569    1.945013   -0.823579
H       1.812087    0.905407   -1.005966
H       2.996807    0.859760    1.430530
H       1.746121   -0.914127    2.854193
H      -0.754733   -0.712761    1.994849
H       0.961708   -2.264069   -1.022504
H      -0.739521   -2.868104   -1.043468
