25

C      -0.629682    1.569153    0.539429
C      -0.292266    0.125341    0.146957
C       0.781952   -0.509687    1.035734
C       1.047474   -2.037512    0.831851
C       0.664240   -2.629175   -0.529700
C       2.568498   -2.159981    1.118107
O       3.025195   -0.892606    1.571189
C       2.200824    0.109579    0.977886
C       2.713778    0.504270   -0.411031
H       0.236417    2.232117    0.443062
H      -1.425834    1.973391   -0.093460
H      -0.970600    1.624227    1.579348
H      -1.206373   -0.477865    0.213328
H       0.012888    0.091638   -0.904942
H       0.454885   -0.388055    2.075901
H       0.488090   -2.586325    1.596328
H       1.185620   -2.134536   -1.355719
H       0.928467   -3.691730   -0.567241
H      -0.410464   -2.553293   -0.719026
H       2.803692   -2.890661    1.898065
H       3.104903   -2.463961    0.205162
H       2.273955    0.982612    1.635416
H       2.659605   -0.323492   -1.124410
H       2.140842    1.340376   -0.823524
H       3.760047    0.813488   -0.334094
