16

C      -0.007611    1.525097   -0.003766
C       1.299426    0.785895    0.025035
O       2.034329    0.859691    1.212841
C       2.134539   -0.347832    1.946568
C       0.779204   -0.947046    2.268420
O      -0.268683   -0.014607    2.540737
C      -0.308923   -0.737742    1.304453
C       0.004143    0.011991    0.042276
H      -0.277346    2.033660    0.914026
H      -0.316999    2.006410   -0.924392
H       1.916299    0.759550   -0.871695
H       2.733618   -1.105149    1.412151
H       2.668586   -0.086590    2.865670
H       0.793548   -1.835423    2.900313
H      -1.115714   -1.466595    1.240961
H      -0.271372   -0.518509   -0.863877
