19

C      -0.255795    1.508802    0.029287
C       0.079641    0.022322    0.005216
C       1.041037   -0.390235   -1.151197
N       1.940006   -1.438327   -0.619992
C       1.853629   -1.307412    0.784742
C       2.442518   -1.809024    1.919411
C       1.751219   -1.202138    3.017168
C       0.785694   -0.357585    2.515925
N       0.871481   -0.423001    1.142822
H       0.657251    2.108949    0.088641
H      -0.799245    1.788773   -0.878858
H      -0.888955    1.758813    0.885765
H      -0.853929   -0.559068   -0.040685
H       0.507627   -0.739082   -2.037693
H       1.641649    0.481901   -1.437951
H       1.663588   -2.363515   -0.930676
H       3.260861   -2.509090    1.969611
H       1.967907   -1.352072    4.064414
H       0.093035    0.303260    3.010579
