19

C      -0.257584    1.487352   -0.098861
C       0.110399    0.027895   -0.035843
O       1.488041   -0.330872   -0.214952
C       0.879840   -0.583897    1.060640
C       1.413209    0.195210    2.263412
C       1.854383   -0.769833    3.364636
O       2.306879    0.013495    4.453014
C       2.603636    1.060825    1.851503
O       2.563799    2.252646    1.706208
H      -0.232734    1.835566   -1.136567
H      -1.278402    1.627971    0.273916
H       0.421306    2.107910    0.488413
H      -0.570481   -0.638105   -0.570445
H       0.709891   -1.645831    1.252153
H       0.645501    0.864001    2.665646
H       1.009467   -1.416444    3.648500
H       2.652459   -1.424895    2.976073
H       2.660449   -0.571655    5.129464
H       3.543804    0.488451    1.691152
