16

C      -0.246354    1.554402   -0.053377
C       0.072566    0.103741    0.026563
C       0.674179   -0.904310   -0.853240
C       1.428463   -1.569317    0.296124
O       2.714477   -1.004537    0.362016
C       0.371299   -0.886388    1.229941
C      -0.901997   -1.560471    0.755438
O      -1.786897   -2.194280    1.237009
N      -0.814360   -0.986979   -0.585934
H       0.624186    2.155109    0.228286
H      -0.536561    1.819255   -1.073760
H      -1.073923    1.812668    0.615307
H       0.966109   -0.844900   -1.894196
H       1.462212   -2.667294    0.327408
H       3.176184   -1.389468    1.113780
H       0.584883   -0.666290    2.272655
