23

C       0.074567    1.198073    0.546980
C      -0.096302   -0.218777   -0.046833
C      -1.567980   -0.543732   -0.314962
C       0.726140   -0.316856   -1.328080
O       0.226375   -0.207763   -2.426075
C       2.249194   -0.574708   -1.233099
C       2.515831   -1.975904   -1.809904
C       2.994884    0.504602   -2.029687
O       2.617155   -0.530128    0.146171
H       1.121676    1.407701    0.773231
H      -0.298216    1.956351   -0.149938
H      -0.500128    1.281840    1.474571
H       0.326176   -0.926905    0.673104
H      -1.984661    0.136366   -1.062204
H      -1.690373   -1.562555   -0.694352
H      -2.150226   -0.449423    0.606963
H       2.155264   -2.040382   -2.838978
H       3.591533   -2.187057   -1.802498
H       2.013141   -2.740888   -1.210714
H       2.857298    1.485588   -1.566387
H       4.068155    0.283338   -2.056587
H       2.619868    0.545344   -3.054298
H       3.560925   -0.710778    0.203481
