13

N       0.020552    1.382001    0.104856
C      -0.075519    0.032407    0.038626
C      -1.215290   -0.729607    0.021819
C      -1.100417   -2.143084   -0.009070
N       0.027475   -2.799009   -0.028226
N       1.135099   -2.018679   -0.020141
C       1.229324   -0.648583    0.005818
O       2.301354   -0.051416   -0.004942
H       0.949269    1.752228   -0.037404
H      -0.772717    1.968351   -0.084422
H      -2.198664   -0.271126    0.036639
H      -1.990986   -2.762647   -0.017333
H       2.010279   -2.524257   -0.044750
