19

C       0.014581    1.576091    0.002572
C       0.021529    0.036508    0.078793
C       0.792028   -0.449695    1.322219
C      -1.357269   -0.542548    0.002179
C      -1.961059   -1.370221   -0.912744
O      -1.387848   -1.878598   -2.030950
N      -3.255513   -1.652480   -0.583377
C      -3.468207   -1.000446    0.542919
N      -2.364568   -0.319203    0.938549
H       1.036311    1.969875   -0.004041
H      -0.495205    1.923357   -0.900225
H      -0.499279    2.015082    0.866516
H       0.543722   -0.340688   -0.807881
H       0.834607   -1.541709    1.357004
H       1.816676   -0.063513    1.320560
H       0.314018   -0.104115    2.247013
H      -2.065620   -2.416373   -2.457161
H      -4.391203   -0.990429    1.102104
H      -2.283725    0.249543    1.764069
