18

C       0.108987    1.599126    0.056921
C       0.074135    0.077315    0.050431
C       1.060204   -0.729517   -0.807611
C       1.200748   -1.777539    0.204356
N       2.383463   -0.851472   -0.087089
C       2.119505   -0.272258    1.227645
O       2.893676    0.184837    2.009700
C       0.663494   -0.723700    1.264321
C      -0.083888   -0.937601    2.550291
H       1.116778    1.981160    0.247015
H      -0.225044    1.996217   -0.907310
H      -0.554475    2.003610    0.828490
H      -0.937823   -0.289463   -0.155441
H       1.124656   -0.796155   -1.886428
H       1.316748   -2.851037    0.202899
H      -0.270346    0.021784    3.043956
H      -1.050528   -1.421020    2.376768
H       0.492364   -1.557051    3.244311
