17

O      -0.041390    1.398613   -0.118808
C       0.047494    0.001544    0.007933
C       1.064393   -0.530171   -1.027263
C       2.375164    0.077711   -0.805783
N       3.383354    0.600813   -0.589789
C      -0.010471   -0.642172    1.443221
C      -1.450391   -0.075468    1.569564
C      -1.325350   -0.719594    0.160944
N      -0.660508   -1.885619    0.867440
H       0.830479    1.782668    0.037372
H       1.176167   -1.616920   -1.008439
H       0.718269   -0.252990   -2.028893
H       0.772756   -0.696598    2.201001
H      -2.088633   -0.629301    2.256342
H      -1.566655    1.002983    1.620177
H      -2.097828   -0.862493   -0.596437
H      -0.023100   -2.384273    0.243529
