15

O       0.114161    1.402513    0.198311
C      -0.001090    0.012825    0.049525
C      -1.433741   -0.520085   -0.183116
C      -2.053567    0.176961   -1.399950
O      -1.310970   -0.413879   -2.489517
C      -0.444160   -1.365666   -1.871353
O      -1.135708   -1.823720   -0.732120
C       0.658042   -0.495667   -1.250391
O       1.721851   -0.140458   -1.681265
H       0.948596    1.658231   -0.218410
H       0.429440   -0.529416    0.905378
H      -2.063609   -0.616737    0.698098
H      -3.115281   -0.058258   -1.517264
H      -1.900697    1.258255   -1.381463
H      -0.179757   -2.165741   -2.558773
