10

N      -0.090961    1.320563   -0.148504
C       0.006183    0.053961    0.018140
C       1.221449   -0.746614    0.119625
N       1.247357   -2.019403    0.287289
O       0.048216   -2.692447    0.379972
N      -1.178928   -2.049164    0.299294
C      -1.185387   -0.777236    0.131678
H       0.835755    1.751458   -0.208393
H       2.200689   -0.275977    0.054355
H      -2.167242   -0.315429    0.074103
