20

C       0.025391    1.581753   -0.138763
C       0.008116    0.061272   -0.007841
C      -1.396809   -0.516824    0.086871
O       0.618522   -0.535181   -1.171576
C       1.950003   -0.679840   -1.159339
N       2.566839   -1.082376   -2.182992
C       3.995953   -1.258495   -2.070229
C       4.396929   -2.675105   -2.464703
O       5.399497   -3.219721   -2.083892
H       1.049530    1.959057   -0.216288
H      -0.522491    1.891172   -1.033826
H      -0.443211    2.045286    0.734800
H       0.587199   -0.239538    0.876916
H      -1.976845   -0.254837   -0.802966
H      -1.360993   -1.606215    0.165696
H      -1.912006   -0.118940    0.965814
H       2.431016   -0.436051   -0.198305
H       4.498394   -0.592779   -2.790296
H       4.419927   -1.039081   -1.077276
H       3.679896   -3.166494   -3.158108
