22

C      -0.789538   -0.153669    0.622338
O       0.137550   -1.023004    0.008477
C       0.641027   -0.607536   -1.255982
C       1.779665   -1.600077   -1.567109
C       2.975070   -1.424121   -0.628657
O       1.277071   -2.928169   -1.530289
C      -0.421377   -0.618935   -2.337569
C      -1.201950    0.602957   -2.657230
N      -0.176153    0.113207   -3.592129
H      -0.380195    0.862997    0.723871
H      -1.735218   -0.094580    0.069301
H      -0.986840   -0.553709    1.619973
H       1.054669    0.414707   -1.176655
H       2.098654   -1.434782   -2.602649
H       3.726686   -2.188326   -0.841582
H       3.436611   -0.438314   -0.754314
H       2.659069   -1.523454    0.413873
H       0.813520   -3.009618   -0.687274
H      -0.879520   -1.593041   -2.486086
H      -2.224636    0.519127   -3.014142
H      -0.995285    1.506227   -2.087470
H       0.665424    0.680531   -3.502468
