17

C      -0.131555    1.485725   -0.174497
C       0.028657   -0.002629    0.039263
C       1.321584   -0.756759   -0.143844
O       2.440855    0.033618    0.279490
C       1.976203   -0.009122    1.664924
C       1.951443    1.266001    2.358373
C       1.934877    2.297803    2.975666
C       0.677365   -0.705276    1.218845
O       0.079525   -1.704650    1.953597
H       0.802933    2.012442    0.024665
H      -0.419282    1.687041   -1.211948
H      -0.905565    1.905502    0.476153
H      -0.808869   -0.612451   -0.300533
H       1.506924   -1.557992   -0.848834
H       2.592685   -0.726188    2.222048
H       1.917975    3.215671    3.510271
H      -0.694309   -1.338242    2.395804
