17

C       0.037036    1.408747    0.031875
C      -0.071993   -0.124228   -0.003938
C      -1.470081   -0.554693    0.000458
C      -2.625411   -0.906670    0.021302
C      -3.931682   -1.303418    0.043308
N      -5.042915   -1.641541    0.065111
N       0.593502   -0.638904   -1.206227
C       2.026212   -0.898447   -1.066561
C       1.055257   -2.023532   -1.147343
H       1.091091    1.697429    0.064032
H      -0.416480    1.836500   -0.864672
H      -0.464855    1.811909    0.914565
H       0.393921   -0.530673    0.914819
H       2.636013   -0.626854   -1.922589
H       2.487698   -0.709680   -0.098392
H       0.869112   -2.586376   -0.234382
H       0.939933   -2.592693   -2.064247
