16

C       0.404020   -0.089668   -1.248973
C       0.162593    0.570040   -0.273531
C      -0.087293    1.372914    0.929919
N       1.008186    2.246133    1.339020
C       1.361807    3.307854    0.507362
N       2.627195    3.719332    0.465133
N       2.596851    4.797490   -0.356309
C       1.363829    5.060231   -0.837155
C       0.517737    4.113127   -0.300301
H       0.612470   -0.667199   -2.115411
H      -0.983852    1.986075    0.785766
H      -0.312640    0.707816    1.770915
H       1.831661    1.731630    1.625402
H       3.454383    5.284220   -0.547176
H       1.178070    5.882607   -1.510186
H      -0.541825    4.022144   -0.469532
