16

C       0.003667    1.441259    0.081348
N      -0.050136   -0.002814    0.026133
C      -0.060126   -0.801616   -1.121362
C      -0.012701   -2.134456   -0.778908
C       0.038153   -2.184867    0.651108
C       0.020577   -0.872629    1.065854
O       0.054965   -0.707136    2.399904
C       0.095797   -2.012654    2.885365
C       0.086432   -2.932263    1.882958
H       1.029846    1.808543    0.200986
H      -0.410467    1.850267   -0.842335
H      -0.595271    1.803786    0.921017
H      -0.103639   -0.329212   -2.089995
H      -0.025643   -2.956395   -1.477525
H       0.130814   -2.087951    3.958752
H       0.112813   -4.001974    2.023507
