16

O       0.322596    1.229201   -0.357224
C       0.152001   -0.135730   -0.089224
C       1.144872   -1.008349   -0.815033
O       2.479136   -0.676484   -0.401502
C       3.217098    0.092505   -1.227438
O       4.295546    0.507417   -0.926140
C      -0.370743   -0.541733    1.264030
C      -1.266516   -0.601439    0.042952
H       1.050357    1.546812    0.189730
H       0.994096   -2.065518   -0.582342
H       1.047833   -0.866784   -1.899011
H       2.720087    0.280684   -2.197939
H      -0.020732   -1.470656    1.700755
H      -0.554058    0.256341    1.974295
H      -2.026615    0.163815   -0.058236
H      -1.537594   -1.572348   -0.357771
