18

C      -0.145287    1.331791    0.066375
O       0.136570   -0.058734    0.000724
C       0.737725   -0.592577    1.147061
C      -0.118592   -0.690229    2.457149
C       0.354751   -2.149086    2.615406
O      -0.673822   -3.023525    3.003996
C       0.799341   -2.144774    1.125018
C       2.058103    0.017892    1.395008
N       3.089099    0.503345    1.590667
H       0.771187    1.925290    0.180227
H      -0.628212    1.593529   -0.876545
H      -0.826660    1.566109    0.895720
H       0.076734    0.013189    3.266535
H      -1.176850   -0.674710    2.184378
H       1.218815   -2.219189    3.288574
H      -0.296440   -3.896663    3.151015
H      -0.008619   -2.506413    0.485195
H       1.744936   -2.611581    0.847415
