17

O      -0.079365    1.302432    0.042235
C       0.020889   -0.068131   -0.003614
C       0.652159   -1.041163    1.050875
C       0.037264   -1.911095   -0.061726
C      -1.221483   -0.992775   -0.035049
C       0.662316   -0.959505   -1.120995
O       0.096230   -3.309213   -0.021322
C      -0.539058   -3.991826   -1.000053
O      -0.532320   -5.183698   -1.052821
H       0.807734    1.677795    0.057742
H       1.742461   -1.052510    1.125961
H       0.167467   -1.085513    2.028419
H      -1.828289   -1.024908    0.872292
H      -1.831143   -0.951760   -0.940704
H       0.185266   -0.923975   -2.103387
H       1.753168   -0.961170   -1.189332
H      -1.052887   -3.334329   -1.723907
