23

C       0.327506    1.540123    0.029855
C       0.045700    0.026940   -0.004298
C      -1.466044   -0.217664    0.001449
C       0.739516   -0.643293   -1.210399
O       0.495979    0.095421   -2.395578
C       2.232546   -0.752919   -0.815723
C       2.244470   -0.789822    0.735217
C       0.757709   -0.700155    1.157459
O       0.532430   -0.019471    2.380391
H       1.397891    1.764515    0.026687
H      -0.113988    2.022116   -0.845016
H      -0.099798    1.979316    0.933821
H      -1.935526    0.245810   -0.871622
H      -1.694749   -1.289694   -0.022463
H      -1.921910    0.203322    0.902799
H       0.320802   -1.658288   -1.316134
H       0.882226   -0.385460   -3.133535
H       2.707461   -1.630484   -1.264884
H       2.757982    0.128113   -1.195263
H       2.726301   -1.687351    1.134832
H       2.775600    0.072606    1.148097
H       0.340470   -1.719296    1.220590
H       0.929594   -0.535211    3.088406
