20

O      -0.057986    1.443724    0.213557
C       0.051726    0.023012    0.093205
C      -1.360777   -0.553162    0.264999
C      -2.154430   -0.535880   -1.042604
C      -2.058718    0.766157   -1.913713
C      -1.223984   -0.017152   -2.937913
C      -1.454524   -1.306141   -2.189686
N      -0.123710   -0.784964   -2.380340
C       0.712493   -0.427977   -1.235355
H       0.811987    1.822218    0.051041
H       0.690184   -0.347228    0.910590
H      -1.285304   -1.585440    0.629700
H      -1.864551    0.029146    1.043241
H      -3.185956   -0.853785   -0.876840
H      -3.034118    1.027083   -2.333602
H      -1.607347    1.645779   -1.457454
H      -1.203707    0.160367   -4.008231
H      -1.696257   -2.302565   -2.546906
H       1.426045    0.340500   -1.559916
H       1.304191   -1.327340   -1.020717
