17

C       0.139784    1.443443   -0.190316
C       0.021689    0.027413    0.329962
O       0.800774   -0.421558    1.143637
C      -1.166250   -0.783401   -0.191303
C      -0.990889   -2.266895   -0.203674
C      -1.483791   -3.239443   -1.038965
N      -1.082542   -4.488788   -0.628060
C      -0.351307   -4.277394    0.443579
N      -0.274200   -2.954192    0.752745
H       0.891182    1.992245    0.378096
H       0.429821    1.417820   -1.247612
H      -0.825691    1.958354   -0.139574
H      -2.005715   -0.485058    0.461079
H      -1.445604   -0.436577   -1.190939
H      -2.108643   -3.106664   -1.910100
H       0.144993   -5.035315    1.031100
H       0.301522   -2.493596    1.441476
