19

C      -0.029851    1.490401    0.047544
C       1.316417    0.784727    0.021113
C       2.143482    0.740888    1.286840
O       2.801620   -0.507614    1.465508
C       2.016051   -1.643796    1.675632
C       1.121684   -1.851842    2.880078
C       0.517379   -1.760893    1.499950
O      -0.275619   -0.629296    1.260556
C       0.034337   -0.002666    0.046640
H      -0.325988    1.964808    0.977004
H      -0.371666    1.993176   -0.849714
H       1.879640    0.799892   -0.906879
H       2.950443    1.478535    1.251873
H       1.513730    0.979140    2.153386
H       2.580718   -2.514609    1.354301
H       1.147308   -2.799738    3.406405
H       0.930123   -0.987885    3.507650
H       0.143989   -2.667404    1.021951
H      -0.274562   -0.549073   -0.843616
