21

C       0.031004    1.667335    0.080303
C       1.548321    1.351605    0.043263
C       1.188454    0.089165    0.906049
C      -0.080946    0.105921    0.010936
C      -1.406632   -0.582449   -0.033774
C      -1.763966   -0.769783   -1.311330
C      -0.693495   -0.301518   -2.295269
C       0.534009   -0.226301   -1.369507
C       1.690806    0.809944   -1.405721
H      -0.304702    2.059266    1.043634
H      -0.398588    2.255819   -0.735869
H       2.291712    2.072611    0.385816
H       1.839051   -0.789317    0.849533
H       1.003702    0.356747    1.949534
H      -2.027959   -0.795324    0.828683
H      -2.722603   -1.160324   -1.637510
H      -0.562289   -0.983774   -3.141719
H      -0.965498    0.676168   -2.719425
H       0.948320   -1.240022   -1.314282
H       1.544430    1.608035   -2.141176
H       2.662669    0.348571   -1.602889
