13

C      -0.022758    1.493877   -0.074756
C       1.322696    0.820879   -0.016437
C       0.058543   -0.002588    0.038576
N       0.426753   -0.801913   -1.201996
C       0.615652    0.097666   -2.359202
C       1.657909    0.057144   -1.312912
H      -0.310428    1.965329    0.860556
H      -0.386347    2.024480   -0.947375
H       2.051653    1.019091    0.757405
H      -0.393214   -0.557630    0.850461
H       0.817850   -0.462274   -3.268198
H      -0.023735    0.959354   -2.510768
H       2.629215   -0.398886   -1.477028
