19

C       0.751362    1.939408    0.024832
C       0.062532    0.675636    0.485380
C       0.511788   -0.674930    0.046876
C       0.699753   -0.287171    1.506172
C       2.076853   -0.048955    2.002957
O       3.012863    0.236407    1.287014
C       2.308507   -0.226810    3.519827
C       1.287959    0.371313    4.366972
C       0.439878    0.875861    5.053247
H       1.828301    1.791396   -0.068852
H       0.357949    2.244932   -0.950922
H       0.577295    2.761309    0.727334
H      -1.007399    0.782969    0.645065
H      -0.224113   -1.440680   -0.171403
H       1.428583   -0.729232   -0.530970
H       0.015026   -0.704620    2.234763
H       2.357227   -1.309500    3.708391
H       3.300291    0.178241    3.740843
H      -0.303098    1.323307    5.665849
