17

C       0.107569    1.563382    0.114199
N       1.145175    0.577051   -0.221849
C      -0.237132    0.127151   -0.007803
C      -0.464581   -0.717844    1.212854
O      -1.793801   -0.546287    1.693517
C      -2.298399   -1.822993    2.073991
C      -1.104407   -2.768396    1.861064
O      -0.329262   -2.082421    0.891861
H       0.209473    2.014672    1.097293
H      -0.257809    2.236028   -0.656727
H       1.352596    0.601804   -1.215914
H      -0.828177   -0.183564   -0.866122
H       0.254132   -0.436336    2.003618
H      -2.638170   -1.800757    3.115612
H      -3.148661   -2.084818    1.431920
H      -0.534771   -2.906981    2.792569
H      -1.377109   -3.747311    1.461548
