20

C       0.115266    1.453463    0.008145
C      -0.024553   -0.071357    0.001155
C      -1.480772   -0.506713    0.013065
O      -1.511593   -1.946128    0.005434
C      -2.736571   -2.510477    0.014798
O      -3.763580   -1.878602    0.028584
C      -2.631813   -4.022871    0.005788
C      -3.994810   -4.710310    0.013457
H       1.167965    1.749353   -0.000536
H      -0.363936    1.902280   -0.868694
H      -0.346634    1.892588    0.899065
H       0.464700   -0.492568   -0.884648
H       0.481951   -0.502208    0.872507
H      -2.006655   -0.141655    0.902166
H      -2.023964   -0.131949   -0.861476
H      -2.041182   -4.310243   -0.872218
H      -2.026937   -4.319432    0.870979
H      -3.875506   -5.797305    0.007044
H      -4.569331   -4.430125    0.899910
H      -4.583708   -4.421376   -0.860680
