19

O       0.252846    0.513097    0.957779
C      -0.090152    0.200512   -0.386254
C      -1.443614   -0.467936   -0.369044
C      -1.949665   -1.441769   -1.398090
C      -1.704535   -1.887740    0.051987
C      -0.571697   -2.824170   -0.401551
O      -0.801623   -4.192934   -0.198594
C      -0.849064   -2.375802   -1.897453
O      -1.444394   -3.425432   -2.644163
H       1.077818    1.007740    0.948297
H      -0.148156    1.111222   -1.003606
H       0.669989   -0.448171   -0.845097
H      -2.224651    0.206747   -0.024378
H      -2.878156   -1.286974   -1.934787
H      -2.417485   -2.133491    0.829889
H       0.418608   -2.607607    0.009882
H      -1.522228   -4.430052   -0.799871
H      -0.018744   -1.929911   -2.461499
H      -0.741472   -4.032209   -2.902098
