15

N       0.160946    0.941739    0.814214
C      -0.004565    0.080128   -0.219566
O       0.711263    0.030726   -1.202038
C      -1.249562   -0.816806   -0.121819
N      -2.327726   -0.355200   -0.989541
C      -0.976294   -2.331926   -0.203002
O      -1.476382   -2.493831    1.176551
C      -1.727167   -1.166321    1.293310
O      -2.133795   -0.559959    2.238569
H       0.921507    1.601495    0.778137
H      -0.464658    0.942233    1.605404
H      -2.727513    0.498688   -0.608357
H      -1.930387   -0.114767   -1.895547
H      -1.611066   -2.869285   -0.906698
H       0.067712   -2.636387   -0.271268
