19

C       0.280690    1.429221    0.235587
C       0.049769   -0.043399   -0.111733
C      -1.404079   -0.491516    0.009549
C      -1.667868   -2.021166   -0.143102
C      -2.218321   -2.030145    1.309828
N      -1.934932   -0.592709    1.387772
C      -2.560056    0.309958    2.181662
O      -3.239845    0.019686    3.145270
H       1.331693    1.702713    0.103721
H      -0.317621    2.088135   -0.403548
H       0.013623    1.637203    1.276407
H       0.367918   -0.236320   -1.144829
H       0.668136   -0.681285    0.531972
H      -2.040119    0.131238   -0.633381
H      -2.397583   -2.284678   -0.909119
H      -0.762392   -2.611373   -0.294572
H      -3.283018   -2.257373    1.418407
H      -1.657699   -2.631174    2.032032
H      -2.373877    1.354633    1.858773
