19

C       0.039712    1.401717   -0.377173
C       0.113855   -0.052222    0.041752
C       1.444572   -0.722874    0.309353
O       2.609704    0.055272    0.324928
C       0.488694   -0.489123    1.450602
C       0.814303    0.501434    2.540785
O       1.398871   -0.161896    3.677937
C       2.733924   -0.355208    3.655274
O       3.310925   -0.912277    4.542114
H       0.896763    1.974229   -0.015466
H       0.025537    1.483608   -1.469636
H      -0.871199    1.879950   -0.002695
H      -0.630228   -0.685295   -0.434996
H       1.591442   -1.746853   -0.030779
H       2.870435    0.234688   -0.584507
H      -0.026544   -1.368057    1.827050
H       1.485130    1.286619    2.183366
H      -0.093026    0.969989    2.929723
H       3.215197    0.051297    2.747748
