20

C      -0.102615    1.597857   -0.033093
C       0.089988    0.095775    0.055098
N       1.025640   -0.533748   -0.918819
C       2.458568   -0.549727   -0.334283
C       2.822742    0.353964    0.783400
C       1.898188    0.257294    1.748152
C       0.783163   -0.645592    1.285668
C      -0.100783   -1.281597    2.337239
C       1.432759   -1.496099    0.146476
H       0.828424    2.142111    0.136525
H      -0.468461    1.854164   -1.033082
H      -0.845030    1.940826    0.696214
H      -0.868581   -0.409078   -0.111000
H       3.166695   -0.825897   -1.105622
H       3.677415    1.018395    0.763662
H       1.834360    0.865683    2.643195
H      -0.596731   -0.519593    2.949022
H      -0.880230   -1.900506    1.880045
H       0.481843   -1.918636    3.011736
H       1.415214   -2.574729    0.017300
