15

C      -0.288054    1.380527    0.072216
N       0.025016   -0.034672   -0.046289
C      -0.014491   -0.857814    1.145599
C      -1.361738   -1.025309    1.696017
C      -2.474490   -1.149197    2.148128
C      -3.732008   -1.293790    2.661435
N      -4.800564   -1.415473    3.099642
C       0.314090   -0.584261   -1.267546
O       0.358820    0.022859   -2.311974
H       0.411970    1.874492    0.756202
H      -0.198800    1.819163   -0.921218
H      -1.307147    1.526504    0.446139
H       0.398356   -1.844089    0.902081
H       0.633269   -0.429502    1.923986
H       0.516432   -1.670891   -1.189592
