16

C      -0.016129    1.536193   -0.034156
C      -0.010994    0.034368   -0.025984
N      -0.099337   -0.634574   -1.174741
C      -0.095986   -1.964655   -1.152241
C       0.002159   -2.676447    0.051695
N      -0.047139   -4.054372    0.104803
N       0.100860   -2.023909    1.217924
C       0.088839   -0.701571    1.168941
O       0.184552   -0.030869    2.336627
H       0.898905    1.943050    0.411046
H      -0.098337    1.889901   -1.063152
H      -0.852923    1.937272    0.548851
H      -0.174303   -2.483553   -2.103967
H       0.236756   -4.547600   -0.726930
H       0.306850   -4.450885    0.962310
H       0.239534   -0.701732    3.031278
