20

C       0.094091    1.096139   -0.656283
C      -0.164409    0.221327    0.583777
C      -1.491892   -0.383200    0.596994
C      -2.590157   -0.876193    0.586140
C      -3.930291   -1.437573    0.599971
O      -3.887107   -2.763219    0.038410
C      -5.066721   -3.415026   -0.015801
C      -4.871838   -4.781647   -0.621571
N      -6.136705   -2.875892    0.406409
H       1.100489    1.523674   -0.618540
H       0.003324    0.506710   -1.572576
H      -0.627081    1.916129   -0.710403
H       0.591477   -0.572656    0.638244
H      -0.032211    0.822301    1.492728
H      -4.335027   -1.492693    1.617031
H      -4.630759   -0.825898    0.019941
H      -4.158534   -5.358842   -0.025610
H      -5.817083   -5.324016   -0.674354
H      -4.452481   -4.690555   -1.628031
H      -6.926456   -3.506134    0.289325
