17

C      -0.131948    1.500260    0.010994
C       0.056720    0.023488    0.107246
O      -1.094572   -0.806955   -0.076215
C      -0.615917   -1.725817    0.950045
C       0.673201   -0.939234    1.095229
C       1.283070   -0.776884   -0.323860
N       1.190440   -1.729825   -1.389481
C       2.522680   -0.031152   -0.298152
N       3.513918    0.564116   -0.253306
H       0.817470    2.019460    0.159253
H      -0.516025    1.763202   -0.980428
H      -0.849958    1.845789    0.760136
H      -1.262333   -1.680280    1.831404
H      -0.548389   -2.756426    0.584631
H       1.248941   -0.769831    1.994775
H       1.586379   -2.628510   -1.136235
H       0.216019   -1.857111   -1.642624
