18

C       0.158211    1.527460    0.075447
C       0.078274    0.016139   -0.021058
C       0.814470   -0.610081   -1.262766
C       1.429562   -1.789777   -0.587274
C       1.336635   -1.671261    0.768024
O       0.657962   -0.560960    1.187802
C       2.046526   -2.725316    1.387984
C       2.571951   -3.466722    0.340666
N       2.211202   -2.887142   -0.855458
H       1.201963    1.854928    0.104084
H      -0.328633    1.990802   -0.788976
H      -0.339502    1.882152    0.982154
H      -0.971149   -0.307026   -0.044750
H       0.094950   -0.835908   -2.057689
H       1.555628    0.086877   -1.682682
H       2.169389   -2.931722    2.438720
H       3.152976   -4.374797    0.357540
H       2.424537   -3.263268   -1.761701
