20

C      -0.158802    1.740334    0.108769
C      -0.076491    0.222125    0.038736
C      -1.425789   -0.432761   -0.265134
N      -1.320185   -1.881557   -0.186282
C      -1.710272   -2.505961    1.075895
C      -2.569040   -2.628765   -0.134529
O       0.852659   -0.104414   -1.008626
C       1.591600   -1.224374   -0.878232
O       2.317230   -1.616940   -1.742215
H       0.831681    2.166206    0.285614
H      -0.543015    2.148645   -0.830759
H      -0.822331    2.051495    0.920774
H       0.306872   -0.175955    0.989043
H      -2.188414   -0.025593    0.422933
H      -1.718664   -0.161359   -1.285858
H      -1.095870   -3.339499    1.403225
H      -2.068426   -1.859468    1.876077
H      -3.500309   -2.064486   -0.140620
H      -2.591484   -3.552091   -0.705690
H       1.472088   -1.707747    0.107797
