18

C      -0.044161    1.505334    0.019707
C      -0.035435   -0.012779    0.004936
O      -1.377767   -0.466082    0.010529
C      -1.471563   -1.872004   -0.002250
C      -2.867972   -2.285980    0.002237
C      -4.015405   -2.653647    0.004955
C      -5.423132   -3.026757    0.010002
N      -5.634071   -4.376247    0.014237
O      -6.321092   -2.208186    0.000405
H       0.979715    1.890695    0.015749
H      -0.566567    1.893680   -0.858770
H      -0.553256    1.876556    0.913278
H       0.488168   -0.391361   -0.889515
H       0.501397   -0.408537    0.884005
H      -0.971127   -2.291286   -0.893484
H      -0.959643   -2.307915    0.874378
H      -4.874310   -5.028210    0.099655
H      -6.582864   -4.707411    0.076444
