20

O       0.006099   -0.064452   -0.198675
C       0.093303    1.156852   -0.048410
O       1.054476    1.941979    0.068350
C      -1.327700    1.907086    0.018259
C      -2.389100    1.098805    0.761318
C      -3.711216    1.871231    0.887001
C      -3.493472    3.241678    1.527166
N      -2.441168    4.013540    0.762582
H      -2.775342    4.167723   -0.191172
H      -2.305010    4.932760    1.188282
C      -1.098810    3.251598    0.662481
H      -1.651023    2.063232   -1.023624
H      -2.524666    0.147864    0.243669
H      -2.017663    0.847508    1.763959
H      -4.171763    2.008052   -0.101376
H      -4.445199    1.336872    1.500698
H      -4.398530    3.854745    1.546693
H      -3.108268    3.148886    2.546599
H      -0.735403    3.166422    1.689012
H      -0.406009    3.869211    0.094673
