15

O       0.047349    0.021995   -0.288492
C       0.018376    1.206382   -0.133821
C      -1.245818    2.047854    0.118075
C      -0.781029    3.521425    0.050958
C      -1.320344    4.369238    1.111969
N      -1.741092    5.031872    1.960235
C       0.756185    3.429873    0.074542
C       1.411698    2.691227    1.168782
N       1.189421    2.043222   -0.158028
H      -2.012026    1.809516   -0.620737
H      -1.650373    1.777448    1.096993
H      -1.078403    3.958100   -0.907623
H       1.304103    4.193782   -0.466007
H       2.454595    2.874077    1.402635
H       0.806673    2.353958    2.006614
