19

O       0.085103   -0.191408    0.820116
C       0.104937    1.016044    0.834291
C       1.342773    1.809552    0.521541
C       1.167498    3.102423   -0.334307
O       0.422141    3.702629    0.795640
C       1.622180    3.073501    1.392875
C       2.494743    3.703865    0.250043
C       3.849375    3.102800   -0.116713
C       2.576295    5.228570    0.254052
H      -0.794318    1.612156    1.080245
H       2.166146    1.135235    0.293515
H       0.732551    3.202467   -1.330300
H       1.734662    3.138646    2.476520
H       3.871633    2.012939   -0.139268
H       4.159872    3.461852   -1.103957
H       4.609219    3.435748    0.598652
H       3.330614    5.567145    0.973058
H       2.882515    5.595593   -0.731911
H       1.618046    5.677009    0.513397
