17

C      -0.130801    1.541521   -0.061348
C      -0.036151    0.025890   -0.046684
C      -1.147723   -0.658569    0.552589
C      -2.085158   -1.236525    1.037378
C       0.688879   -0.711696   -1.186116
N       1.315349   -0.078557   -2.300560
C       1.341986   -0.650961    0.178392
C       2.497449    0.177736    0.362265
N       3.423064    0.862822    0.482587
H       0.711998    1.991154   -0.589237
H      -1.054552    1.849449   -0.559750
H      -0.145578    1.939891    0.956700
H      -2.913373   -1.741441    1.469633
H       0.257514   -1.679890   -1.424787
H       0.641006    0.346310   -2.927026
H       1.995558    0.621024   -2.027422
H       1.341561   -1.558105    0.771197
