19

C      -0.241714    1.613987   -0.126631
C      -0.012932    0.114720   -0.020674
O      -1.231097   -0.579939   -0.209651
C       1.184146   -0.594025   -0.735847
C       2.440853    0.152454   -0.255238
C       2.092003    0.146133    1.278675
O       1.985178    1.411998    1.903692
C       0.726535   -0.562154    1.166824
O       1.089682   -1.653692    0.269597
H       0.636390    2.201300    0.134775
H      -0.547292    1.870416   -1.149857
H      -1.054674    1.902328    0.546250
H      -1.618991   -0.270478   -1.034887
H       1.122617   -0.945480   -1.767028
H       3.346740   -0.412416   -0.485360
H       2.543774    1.166950   -0.649378
H       2.778050   -0.502427    1.835746
H       2.873045    1.751287    2.049380
H       0.210275   -0.866987    2.076321
