14

N       0.054026   -1.161438    0.025014
C       0.067283   -0.008834   -0.039435
C       0.081999    1.450591   -0.148360
N       1.393407    1.984697    0.167387
C       1.550221    3.356724    0.067523
C       0.631375    4.362111    0.048771
O       1.331956    5.549610   -0.003256
C       2.620312    5.178231   -0.026161
N       2.824885    3.900590    0.011683
H      -0.272556    1.730045   -1.155688
H      -0.648469    1.854671    0.564718
H       2.168740    1.475740   -0.234873
H      -0.439994    4.434975    0.074330
H       3.357306    5.964390   -0.075253
