17

C      -0.108600    1.566978   -0.034554
C       0.033477    0.081401    0.020896
C       0.491338   -0.941763   -0.955649
C       1.329745   -1.652411    0.106667
O       2.656605   -1.201339   -0.045243
C       0.509709   -0.853873    1.188524
N      -0.638520   -1.700062    1.541045
C      -1.354534   -1.700253    0.489838
N      -0.964467   -0.826862   -0.583595
H       0.856589    2.051289    0.145047
H      -0.473726    1.876201   -1.017786
H      -0.816322    1.923772    0.721678
H       0.726345   -0.875089   -2.011138
H       1.268015   -2.745683    0.187856
H       3.165125   -1.526609    0.704991
H       1.057356   -0.463244    2.044602
H      -2.252800   -2.296091    0.365026
