20

C      -0.073651    1.532063    0.016224
C      -0.048934    0.024457   -0.007630
C       0.677972   -0.812981   -1.125217
C      -0.274591   -1.961922   -0.651374
C       0.249284   -2.217755    0.781628
C       0.419302   -0.735121    1.263122
C      -1.251101   -0.823685   -0.400818
N      -2.462045   -0.525999   -0.593219
O      -3.190433   -1.634419   -1.094986
H       0.928892    1.936631    0.193697
H      -0.444352    1.936702   -0.930206
H      -0.728764    1.897959    0.813745
H       0.451094   -0.456288   -2.131487
H       1.753093   -0.977377   -1.000438
H      -0.525162   -2.814696   -1.276589
H      -0.464254   -2.778519    1.390081
H       1.194452   -2.767963    0.772460
H       1.455226   -0.488088    1.515308
H      -0.204925   -0.499691    2.129509
H      -4.072505   -1.260820   -1.192981
