22

C       0.149355    1.390536    0.459098
C      -0.157434    0.058826   -0.220556
C      -1.427021   -0.611094    0.288084
O      -2.183793   -0.058000    1.053131
C      -1.684247   -2.031655   -0.214139
C      -3.134205   -2.461598   -0.120990
C      -3.486463   -3.907228    0.018149
N      -3.761020   -2.966814    1.093755
C      -2.999026   -3.073169    2.327133
H       1.046216    1.846802    0.031065
H      -0.685638    2.085349    0.342778
H       0.310163    1.254512    1.531974
H      -0.275722    0.189103   -1.306300
H       0.673884   -0.651628   -0.113140
H      -1.338089   -2.116155   -1.252523
H      -1.028704   -2.697897    0.361119
H      -3.802422   -1.825827   -0.700396
H      -4.350372   -4.328116   -0.490638
H      -2.655657   -4.602828    0.146293
H      -1.990600   -3.504316    2.209738
H      -2.902398   -2.077855    2.768478
H      -3.549075   -3.714710    3.023114
