18

N      -0.159737   -1.176397   -0.261928
C      -0.102988   -0.028623   -0.131425
C      -0.013413    1.414876    0.032152
C      -0.586603    1.961042    1.387006
C       0.618687    2.782908    1.898998
C       1.704746    1.838822    2.457301
C       2.287223    1.243548    1.139058
C       1.443703    1.987470    0.083265
O       1.210757    3.261501    0.679582
H      -0.534249    1.882761   -0.807233
H      -1.454333    2.596556    1.203241
H      -0.881378    1.163532    2.071136
H       0.358214    3.629479    2.533502
H       2.459802    2.406143    3.005433
H       1.296642    1.079917    3.128947
H       3.342614    1.494912    1.017952
H       2.187143    0.158673    1.070069
H       1.903937    2.109233   -0.896267
