16

C       0.072847    1.559959    0.017792
C      -0.036596    0.074355    0.003274
C       0.467891   -0.964252   -0.988270
N       0.935932   -0.926577    0.440082
C      -0.109858   -1.656502    1.255525
C      -1.190522   -0.998848    0.403832
O      -2.484066   -0.831185    0.805277
C      -0.912059   -1.521758   -1.007168
O      -1.684332   -1.907933   -1.846328
H       1.078689    1.870603   -0.279335
H      -0.647400    2.007256   -0.674122
H      -0.129139    1.954629    1.018744
H       1.208187   -0.867062   -1.769832
H      -0.038597   -2.749815    1.247708
H      -0.056516   -1.278281    2.278609
H      -3.047519   -1.016369    0.038727
