16

N       0.281140    0.647900   -1.058403
C       0.046909    0.077153    0.154447
O       0.741390    0.247114    1.135114
C      -1.242400   -0.728256    0.230454
C      -1.811839   -1.535697   -0.880675
O      -1.200127   -1.610060   -2.124824
C      -1.197761   -2.268922    0.330872
C       0.073122   -2.978882    0.119635
O       0.848640   -2.735270   -0.789530
H       1.162408    1.122154   -1.179979
H      -0.200380    0.294244   -1.872363
H      -1.945297   -0.285224    0.929560
H      -2.892651   -1.589158   -0.970670
H      -0.308276   -1.986401   -1.984268
H      -1.864582   -2.720326    1.056680
H       0.295093   -3.797691    0.831199
