18

C       0.018065    1.490866   -0.023778
O       1.186940    0.658004   -0.006755
C      -0.096189    0.034192    0.013619
C      -0.524117   -0.830525    1.202418
C      -1.036918   -2.025467    0.409144
C      -0.132366   -2.325383   -0.818598
C      -1.425320   -2.691956   -1.554523
N      -1.868394   -1.451210   -0.772535
C      -0.487508   -0.848159   -1.143411
H      -0.157147    2.066212    0.884527
H      -0.158902    2.029626   -0.954030
H       0.323448   -1.074389    1.849282
H      -1.311944   -0.371257    1.806221
H      -1.517367   -2.846573    0.943855
H       0.850743   -2.808420   -0.842390
H      -1.460144   -2.559275   -2.639593
H      -1.951159   -3.603865   -1.255857
H      -0.397098   -0.456328   -2.157301
