23

C      -1.008661    1.140173    0.244113
C       0.011359    0.023582    0.011770
C       0.655217    0.098765   -1.386152
C       1.614360   -1.070305   -1.609815
C       3.097578   -1.017413   -1.324708
C       3.392750   -0.040744   -0.188417
C       2.348262   -0.792522    0.714175
C       1.085950   -0.008906    1.119235
C       2.165052   -1.821040   -0.423654
H      -0.534344    2.126416    0.173575
H      -1.815034    1.105861   -0.496844
H      -1.464008    1.063609    1.237714
H      -0.521754   -0.937051    0.049572
H      -0.132591    0.077446   -2.147105
H       1.166755    1.062859   -1.508786
H       1.376610   -1.710753   -2.454586
H       3.819671   -1.378013   -2.047914
H       4.407461   -0.148965    0.202200
H       3.210487    1.022568   -0.382420
H       2.835706   -1.214676    1.595413
H       1.379072    1.017616    1.380237
H       0.645371   -0.436569    2.027881
H       2.070347   -2.893831   -0.306391
