20

C       0.088084    1.492642    0.011146
C      -0.037720   -0.009551   -0.008292
C      -0.861808   -0.732361    0.997892
N       0.610604   -0.773214    1.091486
C       1.184721   -1.993767    0.500795
C       0.581083   -2.145727   -0.893693
C       0.847100   -3.263461   -1.799011
O      -0.387626   -3.191175   -1.079706
C       0.182158   -0.742965   -1.328997
H       1.053548    1.811515   -0.398254
H      -0.701519    1.958305   -0.589565
H       0.011385    1.873155    1.032750
H      -1.344484   -0.172530    1.794204
H      -1.388241   -1.633284    0.692127
H       2.271237   -1.858398    0.438449
H       0.981149   -2.871428    1.120963
H       0.770856   -3.118547   -2.876394
H       1.522710   -4.061445   -1.491028
H      -0.700487   -0.766024   -1.973590
H       0.997191   -0.263193   -1.885761
