16

C      -0.418901    1.415989   -0.084331
N      -0.363564   -0.036193   -0.155537
C       0.501201   -0.567185   -0.897011
N       1.536274   -0.111659   -1.722994
C       1.990687   -1.437267   -2.136319
C       3.355640   -1.766262   -1.730034
N       4.426419   -2.033184   -1.387046
C       0.842059   -2.034217   -1.194605
O       1.174719   -2.898593   -0.167889
H       0.549425    1.905675   -0.268933
H      -1.142247    1.808109   -0.811222
H      -0.767064    1.714784    0.908356
H       1.615724    0.745921   -2.245855
H       1.855729   -1.669633   -3.197998
H       0.077141   -2.529252   -1.797356
H       1.690356   -2.424001    0.494597
