18

C       0.054343    1.567029    0.015021
C       0.038203    0.037057    0.014837
C       0.765721   -0.590422   -1.200920
C       1.256869   -1.986182   -0.717869
C       2.424458   -2.482239   -1.442690
N       3.345427   -2.877292   -2.018286
C       1.487192   -1.782757    0.780386
O       2.177914   -0.574847    1.092188
C       0.744504   -0.593230    1.203937
H       1.083087    1.937334    0.063603
H      -0.409521    1.966012   -0.892374
H      -0.492638    1.968999    0.873915
H      -1.003418   -0.313490    0.037084
H       0.128647   -0.667261   -2.083827
H       1.632389    0.018558   -1.464824
H       0.455884   -2.728730   -0.829892
H       1.697007   -2.635105    1.420219
H       0.355874   -0.474858    2.212546
