20

C       0.101401    1.591679    0.026561
C       0.004943    0.065810    0.029781
C       0.638757   -0.619267   -1.206769
C       1.162864   -1.966542   -0.701944
O       1.278475   -2.983356   -1.339555
C       1.418079   -1.836677    0.779925
C       1.632397   -3.070030    1.609489
N       2.184801   -0.575598    1.045264
C       0.724266   -0.588191    1.209185
H       1.150282    1.904228    0.023618
H      -0.385473    2.017085   -0.856816
H      -0.379741    2.021922    0.911750
H      -1.051114   -0.229085    0.087282
H      -0.050630   -0.761362   -2.040899
H       1.494024   -0.039875   -1.572472
H       2.550706   -3.583414    1.307679
H       1.705775   -2.822696    2.673456
H       0.806807   -3.775530    1.476509
H       2.626639   -0.677792    1.957335
H       0.306207   -0.504405    2.208571
