20

C      -0.037278    1.488785   -0.000460
C      -0.025459   -0.019842   -0.077669
C       0.747617   -0.688882   -1.147050
N       1.284608   -0.622183    0.260663
C       1.229597   -2.148119    0.304628
C       2.335161   -2.822168    1.053004
C      -0.115679   -2.785037    0.001339
C       0.736066   -2.231837   -1.113151
O       1.231764   -2.992901   -2.154432
H       0.899536    1.903878   -0.381646
H      -0.865803    1.898721   -0.587778
H      -0.155603    1.819062    1.036454
H      -0.927990   -0.488004    0.300929
H       1.247668   -0.148006   -1.946060
H       2.200705   -2.706204    2.134812
H       2.363979   -3.891296    0.824071
H       3.300940   -2.382753    0.785788
H      -0.057214   -3.868830    0.055057
H      -1.081780   -2.389695    0.297182
H       0.497301   -3.238475   -2.728526
