23

C      -0.078376    1.589689    0.152113
C      -0.076266    0.084178   -0.117603
O       0.955190   -0.571080    0.613710
C      -1.457123   -0.548854    0.148096
C      -1.474415   -2.041023    0.006240
C      -1.830043   -2.927299    0.938807
C      -1.689285   -4.356158    0.473695
C      -1.489457   -4.202204   -1.056551
C      -1.021782   -2.739938   -1.261847
H       0.913251    2.008494   -0.038382
H      -0.804073    2.107004   -0.484619
H      -0.340797    1.796497    1.196872
H       0.190193   -0.085536   -1.168080
H       0.670381   -0.635178    1.531987
H      -1.790510   -0.268999    1.157400
H      -2.173319   -0.092299   -0.550774
H      -2.153690   -2.667720    1.942294
H      -0.823498   -4.836951    0.952020
H      -2.557534   -4.977674    0.721793
H      -0.790576   -4.933531   -1.470371
H      -2.448863   -4.350685   -1.562621
H      -1.440486   -2.288184   -2.169746
H       0.070511   -2.668477   -1.355150
