14

O       0.241474    1.308107   -0.450881
C       0.019622   -0.000580   -0.081561
C      -0.490042   -1.015916   -1.108162
C      -1.326938   -0.660456    0.078127
O      -1.268395   -1.607608    1.145065
C      -0.021462   -1.620682    1.708271
N       0.371641   -2.378727    2.633908
C       0.815860   -0.533314    1.054442
O       1.857683   -0.070805    1.444546
H       1.074963    1.562724   -0.027503
H      -0.761393   -0.555853   -2.052373
H      -0.058343   -2.009398   -1.171161
H      -2.276821   -0.146841    0.010414
H      -0.370678   -3.018443    2.926424
