18

C      -0.205211   -1.321816   -0.043540
C      -0.115887   -0.122855    0.021296
C      -0.051803    1.325879    0.024793
C      -0.306493    2.087931    1.402242
C       1.215717    2.305712    1.391786
C       2.501340    3.169660    1.247748
C       2.681736    1.813939    0.431656
C       2.140297    1.065172    1.655845
N       1.271706    2.113419   -0.095031
H      -0.269669   -2.380904   -0.089844
H      -0.692133    1.690643   -0.782674
H      -0.897389    2.991487    1.241497
H      -0.718040    1.501941    2.224890
H       2.390915    4.068578    0.641570
H       3.156369    3.301130    2.112134
H       3.515836    1.555932   -0.224969
H       2.750914    1.085560    2.563159
H       1.712719    0.080570    1.483940
