17

C      -0.078150    1.358225    0.081431
O       0.006692   -0.070211    0.108109
C       0.724999   -0.571481    1.102643
N       1.348238    0.079323    2.008545
C       1.820952   -0.969483    2.919497
C       0.555587   -1.579941    3.618601
C       0.497670   -2.599701    2.480263
C       1.885945   -2.283437    2.060784
N       0.797612   -2.001351    1.120651
H       0.917989    1.798259   -0.017848
H      -0.694725    1.602994   -0.783595
H      -0.535320    1.732225    1.001658
H       2.659441   -0.660566    3.538844
H       0.814445   -2.093908    4.548190
H      -0.285899   -0.901069    3.781274
H      -0.055001   -3.530253    2.452841
H       2.723232   -2.903402    1.761843
