15

C      -0.007137    1.424551    0.180475
C      -0.021061   -0.045982   -0.025394
N      -0.085680   -0.705666   -1.142769
C      -0.066441   -2.037452   -0.768288
C       0.010372   -2.126862    0.583465
O       0.040311   -0.840136    1.074674
C       0.060909   -3.279070    1.501071
N       0.135376   -2.959296    2.824382
O       0.035667   -4.421196    1.078377
H       0.907390    1.741111    0.692473
H      -0.061589    1.916791   -0.790405
H      -0.856744    1.743860    0.792796
H      -0.108382   -2.842164   -1.483655
H       0.159151   -2.005798    3.140079
H       0.176217   -3.709840    3.492782
