22

C      -0.083400    1.534344   -0.046981
C       0.098709    0.019373    0.002055
C       0.887243   -0.586749   -1.176848
N       1.348301   -1.916831   -0.719041
C       2.628840   -1.875130    0.004564
C       1.358543   -1.887138    0.769179
C       0.881469   -3.120630    1.495454
C       0.847415   -0.524085    1.247216
O       1.946286    0.290351    1.648434
H       0.885004    2.044918   -0.047519
H      -0.616899    1.837458   -0.953332
H      -0.664979    1.898886    0.808326
H      -0.889921   -0.458897    0.011244
H       0.260773   -0.709026   -2.065669
H       1.732877    0.055216   -1.456614
H       3.220532   -2.785507   -0.059426
H       3.202061   -0.952890   -0.011761
H       1.208057   -4.022307    0.971173
H       1.279149   -3.150471    2.516222
H      -0.212814   -3.146343    1.558859
H       0.157362   -0.654343    2.092749
H       1.591588    1.121718    1.979479
