16

C       0.003934    1.516655    0.070724
C       0.011288    0.027397   -0.038297
C       0.009129   -0.800385   -1.138563
C       0.019136   -2.156055   -0.686502
C       0.020762   -3.391093   -1.536245
C       0.027145   -2.107127    0.687712
N       0.022631   -0.785043    1.070641
H       0.888740    1.900274    0.594820
H      -0.004779    1.960914   -0.927193
H      -0.878280    1.890762    0.605964
H       0.001341   -0.468517   -2.166991
H       0.897250   -3.432757   -2.194108
H       0.030131   -4.294888   -0.919425
H      -0.863789   -3.443087   -2.182486
H       0.036022   -2.900025    1.419210
H       0.025066   -0.459388    2.021240
