22

C      -0.141758    1.619857    0.192318
C      -0.086481    0.090801    0.182242
C      -1.458538   -0.573203   -0.084509
C      -1.961242   -0.209573   -1.417860
N      -2.342161    0.068856   -2.473412
C      -1.449383   -2.098600    0.085042
C      -0.541146   -2.867370   -0.856380
C      -1.625165   -2.610923    1.494831
C      -2.751129   -2.741797    0.495934
H       0.847547    2.041335    0.392209
H      -0.485395    2.010871   -0.770245
H      -0.823905    1.987888    0.966724
H       0.630987   -0.249333   -0.571362
H       0.268231   -0.282318    1.149463
H      -2.174117   -0.161418    0.639898
H       0.513650   -2.616406   -0.702623
H      -0.648747   -3.944009   -0.696705
H      -0.790443   -2.657257   -1.902014
H      -1.082464   -3.505914    1.779411
H      -1.738426   -1.889805    2.298083
H      -3.622717   -2.108437    0.623303
H      -2.975151   -3.726091    0.099939
