16

C      -0.002967    1.457214    0.009167
C       0.033266   -0.052609    0.001511
O       1.064600   -0.687180   -0.012188
C      -1.314028   -0.766253    0.014046
N      -1.108425   -2.189809    0.005759
C      -2.143171   -3.067339    0.006691
O      -3.314415   -2.748509    0.016329
C      -1.673619   -4.531928   -0.006794
O      -2.437130   -5.454152   -0.008663
H       1.013144    1.851878    0.001594
H      -0.550665    1.828299   -0.864135
H      -0.534623    1.820170    0.895674
H      -1.889035   -0.451285    0.896150
H      -1.909199   -0.444334   -0.852019
H      -0.140365   -2.483709   -0.006265
H      -0.567970   -4.680607   -0.015285
