19

C       0.009628    1.470561   -0.010732
C      -0.011135   -0.038513    0.043636
C      -1.257179   -0.792578   -0.321238
C      -1.227451   -2.013984    0.218856
C       0.123954   -2.221656    0.860953
C       0.651360   -0.782864    1.173367
C       1.341302   -0.758425   -0.174232
C       1.197039   -2.264814   -0.309221
O       2.420218   -2.856999    0.079656
H       0.952927    1.869031    0.376221
H      -0.106612    1.835087   -1.037745
H      -0.803773    1.895146    0.588236
H      -2.037681   -0.377089   -0.947693
H      -1.958231   -2.800785    0.076423
H       0.224266   -3.012591    1.604036
H       0.940606   -0.358026    2.127385
H       2.212339   -0.199937   -0.496641
H       0.842034   -2.675051   -1.266219
H       2.275404   -3.806713    0.145925
