13

N      -0.150788    1.350245   -0.046984
C       0.116789   -0.001585    0.096497
O       1.178146   -0.449477    0.451582
N      -1.019334   -0.781847   -0.179239
C      -1.046496   -2.159719   -0.086168
N      -2.126333   -2.808052    0.342320
N      -1.724025   -4.067377    0.189169
N      -0.498392   -4.205162   -0.281375
N      -0.046594   -2.992383   -0.475521
H       0.682523    1.917319   -0.006125
H      -0.808772    1.628965   -0.759250
H      -1.918706   -0.343621   -0.048494
H      -2.306808   -4.857491    0.420026
