15

N       0.206051    1.418420   -0.027530
C       0.047190   -0.001965   -0.014588
C      -1.073293   -0.811984    0.038698
N      -0.639182   -2.106878    0.024661
C       0.743744   -2.165180   -0.036810
N       1.392344   -3.419881   -0.060596
C       1.180976   -0.858935   -0.061693
O       2.471097   -0.430760   -0.121058
H      -0.179244    1.852305    0.805128
H      -0.252805    1.845669   -0.825608
H      -2.122208   -0.566419    0.084470
H      -1.211517   -2.932271    0.053616
H       2.026390   -3.523553    0.726051
H       1.953554   -3.530397   -0.899886
H       2.407155    0.536450   -0.122352
