23

C       0.014572    1.600312    0.065897
C      -0.068900    0.076666   -0.051663
C       0.725405   -0.482825   -1.238592
O       2.102715   -0.107537   -1.169798
C       0.568509   -2.001175   -1.378339
C       1.314162   -2.565241   -2.603845
C       1.224007   -4.016965   -2.710854
C       1.135750   -5.216463   -2.773862
C       1.036517   -6.666667   -2.863719
H       1.056497    1.925114    0.126510
H      -0.432697    2.086553   -0.808130
H      -0.513037    1.959520    0.954461
H       0.305997   -0.392232    0.870416
H      -1.115270   -0.239049   -0.147339
H       0.366984   -0.002868   -2.159893
H       2.465610   -0.489172   -0.361830
H       0.944631   -2.490059   -0.469133
H      -0.495476   -2.254836   -1.446904
H       0.910598   -2.100701   -3.514045
H       2.362694   -2.250956   -2.549086
H       0.598575   -6.978929   -3.818514
H       2.020835   -7.141432   -2.782088
H       0.407224   -7.074626   -2.064607
