18

C      -0.006667    1.561060   -0.216366
C      -0.088200    0.052450    0.028611
C       0.914976   -0.434209    1.081150
C       0.821579   -1.921376    1.351744
C       1.535844   -2.488858    2.592862
C       0.116850   -2.807330    3.065426
O      -0.410548   -3.306034    4.006125
O      -0.481061   -2.294247    1.943031
H       0.989324    1.854745   -0.566429
H      -0.732079    1.879300   -0.970956
H      -0.213471    2.122591    0.701309
H      -1.098406   -0.219606    0.354442
H       0.087037   -0.484597   -0.912877
H       1.940914   -0.212862    0.755872
H       0.760213    0.107254    2.023808
H       0.969568   -2.507377    0.439497
H       2.164770   -3.367188    2.439923
H       2.063524   -1.761928    3.213554
