19

O       0.068431    1.403779    0.067162
C       0.084076   -0.002406   -0.004284
C      -1.340422   -0.560597   -0.006921
C      -1.395513   -2.086663   -0.094952
N      -2.756070   -2.553188    0.142586
C      -3.763916   -1.874928    0.770289
O      -4.856249   -2.371205    0.971686
C      -3.448924   -0.430094    1.171282
N      -2.032143   -0.064341    1.188685
H      -0.644985    1.614781    0.686842
H       0.607724   -0.285219   -0.924091
H       0.643920   -0.446117    0.840199
H      -1.868815   -0.135931   -0.870707
H      -1.067697   -2.422846   -1.086163
H      -0.701213   -2.524065    0.640543
H      -2.984514   -3.511509   -0.080737
H      -3.981076    0.222326    0.467203
H      -3.894644   -0.257694    2.153527
H      -1.592873   -0.472836    2.011489
