23

C      -0.179843    1.557587    0.141591
C      -0.011271    0.048751   -0.005065
C       0.883311   -0.541442    1.089388
O      -1.319848   -0.516018    0.046467
C      -1.480134   -1.763038   -0.618526
C      -2.742144   -2.468253   -0.073012
C      -3.441540   -3.102964   -1.299841
C      -2.828595   -2.359215   -2.463160
C      -1.770611   -1.637878   -2.100724
H       0.789759    2.063670    0.105851
H      -0.811767    1.951076   -0.658894
H      -0.656926    1.791914    1.098693
H       0.440595   -0.162300   -0.987486
H       0.459411   -0.327921    2.075837
H       0.979797   -1.626631    0.988024
H       1.889378   -0.111601    1.042514
H      -0.579399   -2.377338   -0.457986
H      -2.515072   -3.188778    0.715917
H      -3.373882   -1.688131    0.361252
H      -3.232088   -4.178981   -1.374289
H      -4.532879   -3.008091   -1.263319
H      -3.210670   -2.445535   -3.475112
H      -1.152439   -1.043739   -2.764635
