20

C      -0.024469    1.512059   -0.005344
N       1.250586    0.778829    0.050424
C      -0.023932    0.022467    0.003835
C      -0.370394   -0.743497    1.234063
C      -0.964205   -1.930748    1.094033
C      -1.239253   -2.432035   -0.309299
C       0.048510   -2.211466   -1.165633
C      -0.410814   -0.725387   -1.265848
C      -1.867640   -1.263529   -1.133445
H      -0.273928    2.064027    0.897176
H      -0.307624    2.009169   -0.930651
H       1.682032    0.767548   -0.871964
H      -0.115818   -0.312393    2.196572
H      -1.244967   -2.538317    1.948218
H      -1.723440   -3.409169   -0.328113
H       1.011341   -2.425881   -0.696644
H      -0.018225   -2.710817   -2.135959
H      -0.144093   -0.152060   -2.159143
H      -2.252426   -1.603793   -2.098776
H      -2.608094   -0.633778   -0.635078
