17

C       0.118894    1.533484    0.025431
O       1.216319    0.625355   -0.042920
C      -0.110269    0.081732    0.013488
C      -0.451304   -0.664156    1.270932
C      -1.913940   -1.227358    1.356374
O      -1.494908   -2.285937    0.431200
C      -0.253817   -2.221400    1.211903
C      -0.738854   -2.643394    2.608577
C      -1.879963   -1.958396    2.709294
H       0.025695    2.085007    0.960772
H      -0.066863    2.116242   -0.875845
H      -0.446604   -0.382325   -0.911754
H      -0.060105   -0.150993    2.152522
H      -2.799063   -0.674312    1.044561
H       0.603921   -2.705020    0.747505
H      -0.245159   -3.311358    3.298244
H      -2.606547   -1.895294    3.505324
