18

C      -0.236954    1.466602   -0.074102
N      -0.127995    0.026620   -0.002293
C       0.568990   -0.623423   -0.848722
N       0.628071   -1.992970   -0.864700
C       0.065245   -2.770183    0.224647
C       0.093839   -4.242688   -0.150369
O       1.447133   -4.575330   -0.440009
C       1.349827   -0.006851   -1.919364
N       1.971657    0.501184   -2.751365
H       0.355877    1.933355   -0.873037
H      -1.288070    1.744320   -0.218420
H       0.072996    1.898249    0.884610
H       1.422122   -2.419935   -1.319245
H       0.623564   -2.609536    1.158345
H      -0.961771   -2.442093    0.403381
H      -0.297550   -4.837358    0.687576
H      -0.550387   -4.413228   -1.025112
H       1.473835   -5.459596   -0.816013
