21

C       0.043280    1.601812    0.058177
C       0.000067    0.094342   -0.114710
C       0.880759   -0.525972   -1.228047
C       1.346870   -1.483645   -0.107269
O       0.814062   -0.573860    0.897081
C       0.648310   -2.817159   -0.073220
C      -0.667714   -2.966023   -0.234595
C      -1.674819   -1.885943   -0.561030
C      -1.433531   -0.453449   -0.034212
H       1.078825    1.946549    0.121209
H      -0.443787    2.103720   -0.785015
H      -0.472930    1.901373    0.976723
H       0.390244   -0.962485   -2.098843
H       1.671360    0.153403   -1.553537
H       2.428034   -1.601360    0.011492
H       1.261179   -3.694145    0.118236
H      -1.080330   -3.971709   -0.180591
H      -1.776069   -1.850675   -1.656640
H      -2.660145   -2.209599   -0.205952
H      -1.709873   -0.405134    1.025432
H      -2.114932    0.220017   -0.568780
