23

C       0.339351    1.319986   -0.185495
O       0.088426   -0.049174    0.011248
C       0.870415   -0.607938    1.048772
C       0.534210   -2.095644    1.154137
C       0.931517   -2.831766   -0.156666
C       2.260596   -3.459538    0.187225
C       2.483400   -3.456976    1.499407
C       1.340872   -2.831494    2.274912
C       1.777287   -1.997422    3.486957
H       1.390225    1.509889   -0.457602
H      -0.302910    1.658511   -1.002562
H       0.109556    1.912893    0.714648
H       1.943908   -0.467902    0.833304
H       0.656370   -0.088479    1.996184
H      -0.542197   -2.167039    1.337470
H       0.196272   -3.604381   -0.422253
H       0.972178   -2.143783   -1.006710
H       2.918814   -3.888760   -0.560562
H       3.350105   -3.883369    1.994412
H       0.707465   -3.644637    2.663550
H       2.457781   -1.187726    3.205980
H       0.917775   -1.556633    4.002700
H       2.303361   -2.630518    4.209420
