19

C       0.041344    1.441913    0.237041
C       0.009668   -0.004284    0.074520
C      -0.003910   -1.201723   -0.054131
C      -0.033363   -2.660006   -0.218895
O       0.784252   -3.321837    0.751894
C      -0.024062   -4.141378    1.594661
C      -1.400828   -4.076033    1.003225
C      -1.428186   -3.243012   -0.031588
C      -2.564270   -2.855297   -0.917980
H       0.948973    1.757382    0.763380
H       0.028247    1.951596   -0.732708
H      -0.818209    1.800674    0.813838
H       0.361417   -2.904499   -1.219005
H       0.388781   -5.161292    1.605123
H       0.004901   -3.769087    2.631755
H      -2.240783   -4.637126    1.394745
H      -3.493014   -3.344924   -0.615036
H      -2.718782   -1.770433   -0.897090
H      -2.361066   -3.124565   -1.962346
