13

N      -0.025795    1.336357    0.010147
C      -0.037088    0.072036    0.003528
O       1.181693   -0.644604   -0.007676
C       1.218479   -1.978226   -0.014964
C       0.106725   -2.753599   -0.012310
C      -1.180993   -2.086810   -0.000949
C      -1.237347   -0.742480    0.006512
C       0.220486   -4.171502   -0.020513
N       0.295227   -5.327320   -0.027089
H       0.925734    1.702942    0.006301
H       2.230266   -2.365242   -0.023165
H      -2.081806   -2.688840    0.001340
H      -2.172783   -0.198820    0.015078
