17

C      -0.278671    1.460296   -0.011304
N       0.039461    0.038075    0.052646
C       1.381181   -0.436794   -0.297608
C       2.443330    0.462347   -0.652654
C       3.327194    1.205632   -0.989566
C       0.873541   -0.476923    1.139044
C       1.485249    0.406297    2.212578
C       0.433420   -1.770460    1.635183
N       0.109397   -2.801068    2.046543
H       0.568151    2.132436    0.171947
H      -0.670038    1.670746   -1.010404
H      -1.068295    1.670721    0.714967
H       1.377185   -1.371868   -0.853345
H       4.114746    1.853821   -1.286859
H       1.955265    1.290437    1.782224
H       0.721449    0.718277    2.930934
H       2.250776   -0.153224    2.756833
