21

C       0.116829    1.519524   -0.257277
C      -0.006752    0.023303    0.088100
C      -1.422211   -0.505249    0.008535
N      -2.036573   -0.732427   -1.089339
O      -1.246965   -0.424072   -2.215050
C      -2.166899   -0.820822    1.293228
C      -2.366977    0.450531    2.143201
C      -3.499346   -1.543303    1.071146
H       1.161974    1.838382   -0.195561
H      -0.241021    1.706303   -1.271347
H      -0.464516    2.140204    0.430848
H       0.607450   -0.550230   -0.614181
H       0.388666   -0.159832    1.092710
H      -1.830131   -0.672031   -2.939625
H      -1.505819   -1.489084    1.866777
H      -3.020181    1.161261    1.625791
H      -2.835326    0.195801    3.099161
H      -1.421628    0.955457    2.360972
H      -3.364104   -2.463296    0.497811
H      -3.952263   -1.795860    2.035350
H      -4.200288   -0.913201    0.516584
