20

C      -0.241447    1.545403   -0.711696
C      -0.159925    0.148171   -0.134047
O       0.460037   -0.790941   -1.036481
C       1.344622   -1.289052   -0.011771
C       2.787955   -1.348385   -0.465484
C       0.856782   -0.202207    1.001114
C       1.847566    0.869806    1.412929
N       1.939126    1.078774    2.759928
O       2.520874    1.508010    0.621638
H       0.751226    1.931146   -0.944220
H      -0.843431    1.517474   -1.625712
H      -0.730052    2.224252   -0.003612
H      -1.167029   -0.199290    0.141667
H       1.017838   -2.286374    0.319237
H       3.149857   -0.360026   -0.749122
H       3.424373   -1.744405    0.333940
H       2.862899   -2.022800   -1.324637
H       0.373735   -0.633059    1.880822
H       1.394480    0.566663    3.429963
H       2.582268    1.780659    3.088521
