16

O       0.039103    0.010046   -0.421834
C       0.049383    1.160046   -0.098591
O      -1.084292    1.832957    0.263571
C      -0.818408    3.210698    0.551375
C      -0.389727    3.506607    2.019537
C       1.088955    3.575662    1.563565
N       1.675575    2.205258    1.449994
C       1.239541    2.114385    0.012956
C       0.629199    3.525001    0.071807
H      -1.650747    3.791365    0.155093
H      -0.766247    4.480655    2.345329
H      -0.636884    2.744102    2.759857
H       1.737970    4.336064    1.998121
H       2.686844    2.221397    1.516053
H       2.020621    1.874308   -0.707612
H       0.812156    4.265223   -0.703221
