18

O      -0.246361    1.344144   -0.239895
C      -0.072830   -0.029131   -0.063866
C      -0.300323   -0.632668    1.317393
C      -1.327906   -0.815718    0.246112
C      -2.731167   -0.207586    0.130152
C      -3.092159   -1.352532   -0.863630
C      -1.777260   -2.092975   -0.474237
C       0.926391   -0.631918   -0.919317
N       1.728023   -1.110078   -1.603368
H       0.532946    1.797383    0.102290
H       0.310053   -1.480656    1.610798
H      -0.507647    0.088460    2.102033
H      -3.287270   -0.264910    1.070533
H      -2.777539    0.815608   -0.245673
H      -4.024057   -1.886904   -0.671340
H      -3.090146   -1.018138   -1.903277
H      -1.139389   -2.444158   -1.288848
H      -1.944267   -2.920750    0.221227
