18

C       0.011405    1.547627   -0.041354
C      -0.004440    0.041090   -0.051164
C      -1.155284   -0.684023   -0.009012
N      -2.395106   -0.126781    0.139844
C      -1.132787   -2.196630   -0.028409
O       0.023106   -2.712486   -0.630113
C       1.206005   -2.197028   -0.044858
C       1.269247   -0.668312   -0.032747
O       2.356470   -0.114481    0.027450
H       1.041397    1.889140   -0.157910
H      -0.587177    1.972758   -0.857838
H      -0.372541    1.962311    0.900031
H      -2.481654    0.872879    0.050975
H      -3.200897   -0.652250   -0.158755
H      -1.249599   -2.570553    1.006294
H      -1.983709   -2.577064   -0.607158
H       1.320212   -2.558572    0.993013
H       2.046946   -2.577193   -0.627679
