21

C      -0.012680    1.309635   -0.094296
O       0.082868   -0.093645   -0.056064
C       0.670638   -0.571067    1.132567
C       0.721145   -2.092192    1.061656
C       1.343516   -2.698498    2.308459
O       1.343018   -4.127462    2.140361
C       1.865233   -4.837829    3.162950
C       1.807417   -6.317540    2.867554
O       2.310486   -4.336658    4.164219
H       0.977218    1.789535   -0.032600
H      -0.476959    1.580308   -1.045639
H      -0.633150    1.700608    0.727998
H       1.686558   -0.154907    1.253984
H       0.085495   -0.243321    2.010186
H      -0.294882   -2.478813    0.930351
H       1.296066   -2.390958    0.178914
H       2.373178   -2.357178    2.461176
H       0.780575   -2.445112    3.213400
H       2.361952   -6.539266    1.951340
H       2.232835   -6.871035    3.703636
H       0.771538   -6.627074    2.702443
