16

O       0.214466    1.173927   -0.636107
C       0.002463   -0.058872    0.035233
C       0.408600   -0.051486    1.529129
C      -0.626166   -0.979718    2.198062
N      -1.850527   -0.978598    1.366930
C      -2.323807    0.369532    1.024297
C      -1.480169   -0.388826    0.066893
H       1.163366    1.301280   -0.732564
H       0.526502   -0.870425   -0.493428
H       1.436633   -0.386376    1.691144
H       0.337039    0.975575    1.898851
H      -0.260993   -2.012182    2.227848
H      -0.867073   -0.687529    3.225102
H      -3.393824    0.439427    0.854093
H      -1.890762    1.230404    1.526417
H      -1.923450   -0.833802   -0.818709
