18

C       0.005556    1.627715    0.035792
C       0.069130    0.106989    0.033479
O      -1.229556   -0.423304   -0.152449
C       1.137215   -0.697311   -0.770846
C       2.222554   -0.259810    0.245039
C       0.961300   -0.689464    1.051256
N       0.925745   -1.909482    0.133810
C       0.785433   -0.803738    2.527023
O       0.048677   -0.083691    3.158323
H       0.982726    2.107953    0.100201
H      -0.488974    1.971975   -0.877378
H      -0.583531    1.969991    0.893725
H      -1.790609   -0.078489    0.551067
H       1.227505   -0.802878   -1.852854
H       3.055096   -0.957004    0.325506
H       2.532149    0.782088    0.282805
H      -0.053476   -2.193479    0.042990
H       1.374497   -1.610865    3.015419
