18

O       0.056730    1.276599    0.386353
C      -0.011180   -0.025842   -0.163512
C      -1.428457   -0.547110   -0.157017
C      -2.507609    0.201318   -0.868374
C      -3.665577   -0.019961   -0.246816
C      -3.420562   -1.035247    0.840792
C      -3.121011   -2.419940    0.172942
C      -1.662953   -1.995218    0.197226
N      -1.932063   -0.900064    1.198268
H      -0.395146    1.227041    1.237610
H       0.362925    0.049306   -1.190542
H       0.640274   -0.729074    0.377767
H      -2.330667    0.804137   -1.749153
H      -4.647854    0.325964   -0.542563
H      -4.089112   -1.022686    1.700360
H      -3.281428   -3.240321    0.875878
H      -3.601572   -2.648637   -0.782361
H      -0.823379   -2.676548    0.306807
