20

O      -0.179872    0.036752   -0.238420
C      -0.030418    1.228363   -0.063395
N       1.167393    1.850213    0.094363
C       2.433628    1.167975    0.019952
C       2.959474    0.505883   -1.292556
C       4.325779    0.663520   -0.567125
C       3.750096    1.986610    0.021143
C       4.173316   -0.308899    0.621250
C       2.726208    0.071793    1.070992
H      -0.876997    1.943222   -0.012115
H       1.170738    2.855127    0.169824
H       2.603826   -0.498407   -1.530734
H       2.856209    1.167797   -2.155386
H       5.268496    0.652274   -1.112285
H       3.738863    2.798752   -0.711191
H       4.134268    2.342123    0.982595
H       4.255499   -1.354228    0.310930
H       4.918337   -0.130019    1.401895
H       2.684340    0.471012    2.088693
H       2.012981   -0.748765    0.991225
