17

O      -0.003951    1.443165    0.047240
C      -0.000930    0.028414    0.013928
C      -1.404056   -0.466757    0.005478
C      -2.560957    0.205768    0.024195
C      -3.626152   -0.871401    0.000778
C      -3.102945   -2.072994    0.863551
O      -3.690596   -3.058112   -0.051367
C      -3.106938   -2.030333   -0.920778
C      -1.820107   -1.927839   -0.028527
H       0.908760    1.744601    0.055987
H       0.527546   -0.353837   -0.878478
H       0.531689   -0.395444    0.884778
H      -2.712618    1.274257    0.050117
H      -4.688619   -0.634983    0.008808
H      -3.188473   -2.254819    1.937942
H      -3.197293   -2.160618   -2.002236
H      -1.090168   -2.736443   -0.049498
