12

O      -0.009162   -0.064101   -0.186142
C      -0.067501    1.102189    0.057500
C      -1.308274    1.961509    0.099936
C      -1.211798    3.006384    1.219313
N       0.056472    3.725691    1.190782
C       1.051232    3.101409    0.741582
O       1.107939    1.794850    0.295589
H      -1.378859    2.474422   -0.868295
H      -2.178244    1.309954    0.196130
H      -2.027201    3.729702    1.134443
H      -1.317016    2.531352    2.204289
H       2.040438    3.546843    0.685842
