19

C      -0.210850    1.630483   -0.096596
C      -0.062355    0.111661   -0.081682
C       1.154352   -0.410059   -0.933863
N       1.918129   -0.573442    0.356576
C       0.709884   -0.519773    1.043616
N       0.121659   -1.108450    2.005118
C      -1.316664   -0.854638    1.710105
C      -1.384071   -0.651192    0.147593
O      -2.504158    0.061812   -0.330344
H       0.768786    2.110648   -0.019934
H      -0.691115    1.955068   -1.024340
H      -0.831820    1.979444    0.732095
H       0.961586   -1.363336   -1.437903
H       1.611084    0.302955   -1.623976
H       2.551321   -1.351373    0.504064
H      -1.912131   -1.711836    2.041012
H      -1.700947    0.035966    2.225759
H      -1.320869   -1.646392   -0.321035
H      -3.294750   -0.446867   -0.125804
