16

C      -0.171845    1.482618    0.032647
N       0.086782    0.055141    0.037052
C       1.151782   -0.480656   -0.862520
C       1.810544   -1.153173    0.348601
O       2.268252   -2.456106    0.368110
C       2.184653   -0.115777    1.376944
C       0.732369   -0.538075    1.206373
H       0.718142    2.109432    0.222622
H      -0.588558    1.773965   -0.937040
H      -0.916832    1.716445    0.800423
H       0.748712   -1.189442   -1.593201
H       1.753953    0.278123   -1.381265
H       3.217587   -2.444763    0.205207
H       2.656725   -0.527287    2.264196
H       2.531492    0.873832    1.090160
H       0.148657   -0.952890    2.020922
