15

C       0.051631    1.515250   -0.009985
C       0.055797    0.005607    0.029564
C       1.303333   -0.785933   -0.242146
C       0.765643   -0.737690    1.176191
N       1.530909   -0.074422    2.200081
C       0.089901   -1.927759    1.653282
N      -0.480117   -2.863315    2.024758
H       0.977581    1.932000    0.396337
H      -0.050346    1.873881   -1.039328
H      -0.782761    1.924144    0.569757
H      -0.868660   -0.460702   -0.298145
H       1.231822   -1.721461   -0.783522
H       2.226958   -0.239930   -0.411686
H       2.334114    0.407675    1.820081
H       0.970556    0.587853    2.725077
