17

C       0.042291    1.548353    0.027407
C      -0.026596    0.015617   -0.115406
C      -1.381590   -0.507829   -0.053282
C      -2.517536   -0.926972    0.000738
C      -3.788252   -1.394823    0.061270
C      -4.926664   -1.814864    0.115404
C      -6.288261   -2.304660    0.181424
C      -6.448030   -3.805223    0.044335
O      -7.226285   -1.550239    0.336504
H       1.081882    1.883206   -0.026700
H      -0.521775    2.038466   -0.770043
H      -0.375640    1.868358    0.985132
H       0.429142   -0.290710   -1.066163
H       0.573816   -0.459123    0.671743
H      -5.886897   -4.317440    0.833340
H      -7.505617   -4.065710    0.107679
H      -6.034626   -4.142212   -0.912378
