18

C      -0.102158    1.588865   -0.037957
C       0.014650    0.063872    0.020470
C       0.803697   -0.551500   -1.186218
C       1.488370   -1.858091   -0.681183
C       1.619450   -1.572241    0.786696
N       2.312535   -2.085361    1.765083
O       1.936977   -1.322729    2.883746
C       1.032885   -0.388159    2.510896
C       0.787477   -0.492391    1.184074
H       0.888129    2.055783   -0.022625
H      -0.613865    1.905371   -0.952689
H      -0.671339    1.976974    0.812759
H      -1.000062   -0.359379    0.029569
H       0.163028   -0.720505   -2.055549
H       1.579405    0.161763   -1.487815
H       0.845608   -2.732216   -0.840575
H       2.440042   -2.061425   -1.177682
H       0.687425    0.255380    3.305044
