23

C      -0.100011    1.454746    0.022709
C       0.033165   -0.051931    0.000426
C       0.646325   -0.660826   -1.288145
C       0.029545   -2.086668   -1.283730
C      -0.831037   -2.050095    0.006674
C      -2.020092   -2.984746    0.036432
C       0.115704   -2.116041    1.234066
C       0.732315   -0.690135    1.229654
O      -1.262749   -0.677309    0.037436
H       0.887695    1.926081   -0.003653
H      -0.670235    1.805791   -0.842472
H      -0.612655    1.784304    0.931291
H       0.324843   -0.090919   -2.163969
H       1.739577   -0.658696   -1.271280
H      -0.608054   -2.247072   -2.157208
H       0.776601   -2.884804   -1.264570
H      -1.687254   -4.027371    0.012646
H      -2.608350   -2.833674    0.946409
H      -2.669217   -2.812637   -0.827249
H      -0.460741   -2.297497    2.145110
H       0.859186   -2.912793    1.145139
H       1.821877   -0.686560    1.138422
H       0.471575   -0.141063    2.138368
