13

O       0.022274    1.418145   -0.136889
C      -0.023585    0.016662   -0.049981
C       0.598151   -0.481262    1.276520
O       1.668169   -0.164659    1.730036
N      -0.344416   -1.320085    1.853907
C      -1.530226   -1.300766    1.129412
C      -1.433714   -0.533516    0.024977
C      -2.437811   -0.327489   -0.943303
N      -3.251368   -0.149392   -1.749826
H       0.910654    1.684269    0.135528
H       0.522168   -0.459625   -0.882645
H      -0.237152   -1.713695    2.775753
H      -2.379322   -1.876494    1.468363
