21

C      -0.071080    1.516530   -0.084015
C      -0.023275    0.018441    0.099243
N       1.284515   -0.644773   -0.101422
C       0.654543   -0.650360    1.235180
C       1.389264    0.054913    2.377615
C       1.909645   -1.092507    3.283840
C       0.933360   -2.233083    3.046930
N      -0.481114   -1.805078    3.126150
C       0.173326   -1.956624    1.802343
H       0.831310    1.988909    0.310603
H      -0.148207    1.773914   -1.145988
H      -0.939216    1.942622    0.430575
H      -0.894917   -0.505657   -0.294331
H       1.158302   -1.545876   -0.558535
H       2.194325    0.688468    2.002908
H       0.686392    0.679240    2.935070
H       2.909306   -1.412241    2.967904
H       1.969765   -0.797540    4.335736
H       1.191341   -3.243860    3.346740
H      -1.063802   -2.621714    3.295088
H      -0.165115   -2.740965    1.130525
