19

C       0.390363    1.510866    0.303661
C       0.181585    0.012112    0.068196
C       0.344941   -0.805378    1.370174
C      -1.248484   -0.256470   -0.441706
O      -2.065549    0.597973   -0.650034
C       1.091509   -0.588107   -1.013120
O       1.262449   -1.787754   -1.096821
C       1.732930    0.314925   -2.057716
O       2.465136   -0.425921   -2.984367
H       1.400167    1.712050    0.672449
H       0.220352    2.096856   -0.601973
H      -0.322832    1.867448    1.050734
H      -0.377950   -0.472615    2.120610
H       0.204017   -1.870902    1.181870
H       1.350398   -0.664522    1.777260
H      -1.470694   -1.335024   -0.591274
H       0.929265    0.893253   -2.545915
H       2.370654    1.053508   -1.547261
H       2.350042   -1.352570   -2.719334
