17

C      -0.157987    1.546897   -0.471453
C      -0.005218    0.099554   -0.049677
C       0.953689   -0.769659   -0.774803
N       1.239494   -0.339315    0.607789
C      -1.270305   -0.547856    0.545934
O      -1.260756   -1.943283    0.474760
C      -1.423870   -0.112338    1.994788
O      -1.503820   -0.915576    2.890865
H       0.773172    1.919773   -0.909242
H      -0.948328    1.658373   -1.222163
H      -0.410463    2.198812    0.372958
H       0.733672   -1.825286   -0.879517
H       1.519829   -0.320646   -1.587357
H       1.919172    0.417661    0.604361
H      -2.138998   -0.150719   -0.009213
H      -1.249359   -2.250390    1.395653
H      -1.450679    0.978122    2.189832
