16

C       0.094411    1.425865   -0.005486
C      -0.041637   -0.053146   -0.016284
N      -1.125761   -0.760853   -0.119610
C      -0.703384   -2.080980   -0.076743
C      -1.651035   -3.225345   -0.166048
C       0.657172   -2.101110    0.054119
O       1.087891   -0.787617    0.093411
C       1.603352   -3.131216    0.146828
C       2.398476   -4.033592    0.224830
H       0.725241    1.767146   -0.832737
H      -0.894702    1.873712   -0.100628
H       0.557689    1.769815    0.924972
H      -2.213393   -3.190309   -1.105175
H      -1.116558   -4.176348   -0.113443
H      -2.381655   -3.187833    0.648954
H       3.100753   -4.826969    0.293840
