15

N       0.051991    1.315628    0.343655
C      -0.065385   -0.035675    0.071785
C      -1.129339   -0.885912   -0.009746
C      -0.548036   -2.178817   -0.217579
O      -1.294675   -3.311463   -0.379042
C      -0.813567   -4.466840    0.150633
N      -1.338515   -5.562929   -0.178285
C       0.802500   -2.033990   -0.255468
O       1.103308   -0.699756   -0.068126
H       0.874258    1.731939   -0.073937
H      -0.780167    1.841447    0.117336
H      -2.177090   -0.650883    0.070331
H       0.009084   -4.296104    0.855389
H      -0.898002   -6.324852    0.333327
H       1.633492   -2.691337   -0.433577
