19

C      -0.099375    1.339982   -0.032944
C       1.301965    1.947317    0.111803
C       2.143345    0.742218    0.577737
C       2.178162    0.520768    2.079471
O       0.874216    0.377495    2.666091
C       1.644521   -0.806258    2.414695
C       1.243571   -1.532050    1.148746
C       1.363251   -0.485584    0.006203
O       0.106432   -0.005766   -0.457945
H      -0.631722    1.364250    0.924747
H      -0.709962    1.836483   -0.793431
H       1.665410    2.307077   -0.855708
H       1.327256    2.782251    0.816939
H       3.168562    0.787573    0.198313
H       2.906025    1.041976    2.697548
H       1.945051   -1.355206    3.304174
H       1.924667   -2.373869    0.978131
H       0.225529   -1.928779    1.193868
H       1.868334   -0.930159   -0.858336
