24

C      -0.086766    2.236917    1.385180
C      -0.810602    0.891952    1.410162
N       0.122912   -0.172216    1.773345
C      -0.280668   -1.576227    1.685381
C      -1.658988   -2.010034    1.238779
O      -2.653063   -1.733086    2.220990
C       0.777948   -1.025287    0.772207
C       0.525489   -0.859463   -0.717215
C       2.230155   -1.332637    1.094248
H       0.689596    2.252288    0.612911
H      -0.788924    3.049633    1.173022
H       0.394683    2.431316    2.347625
H      -1.598694    0.895687    2.170254
H      -1.316229    0.736418    0.445470
H       0.071843   -2.168848    2.535749
H      -1.988784   -1.484204    0.341400
H      -1.633485   -3.084537    0.994818
H      -2.367627   -2.136753    3.047519
H      -0.514077   -0.651264   -0.971523
H       1.136137   -0.040682   -1.115221
H       0.818967   -1.771278   -1.248461
H       2.543744   -2.279685    0.639948
H       2.886389   -0.543415    0.709038
H       2.377955   -1.394748    2.174771
