20

C       0.305358    0.998769   -1.056494
C      -0.202325    0.565704    0.318301
O      -0.350920    1.678853    1.201417
C      -1.527946   -0.172018    0.213265
C      -1.652484   -1.680749    0.062531
C      -0.453300   -2.556369    0.011043
O       0.579171   -2.412174    0.629381
N      -2.091937   -0.958058    1.273479
C      -1.392150   -1.118065    2.549252
H       1.214451    1.595304   -0.945788
H       0.531960    0.132014   -1.685006
H      -0.442868    1.607992   -1.579698
H       0.542031   -0.074450    0.792438
H      -0.980261    2.291231    0.803108
H      -2.279182    0.392226   -0.347504
H      -2.476635   -2.060021   -0.539268
H      -0.579193   -3.424840   -0.673607
H      -0.337629   -1.395229    2.463529
H      -1.468319   -0.169816    3.086416
H      -1.910351   -1.891955    3.122842
