16

C      -0.055224    1.503786   -0.040565
C       0.055134    0.008738   -0.031767
C      -0.694063   -0.924796   -0.989671
C      -1.025245   -1.740433    0.267915
O      -1.750056   -2.638094    0.542231
N      -0.330700   -0.824932    1.191913
C       1.092362   -0.713923    0.763329
C       1.876692   -1.862610    0.223060
O       1.398954   -2.865501   -0.246744
H       0.516405    1.928184   -0.873145
H      -1.099268    1.811719   -0.157618
H       0.325548    1.930926    0.890807
H      -1.587966   -0.461925   -1.416514
H      -0.132921   -1.432484   -1.774037
H       1.660277   -0.087641    1.448404
H       2.977035   -1.713624    0.269108
