20

C      -0.163996    1.524495   -0.053759
C      -0.060084    0.008325    0.112979
C      -1.456109   -0.570276   -0.171281
O      -1.717071   -0.543214   -1.566396
N       1.068115   -0.709846   -0.715359
C       2.053018   -0.134358    0.316981
C       0.863176   -0.619696    1.188808
O       0.639103   -0.503435    2.549375
C       0.931785   -1.875255    0.277354
H       0.784938    2.051959   -0.136591
H      -0.749174    1.738398   -0.952034
H      -0.700170    1.939017    0.806672
H      -1.600578   -1.575885    0.240151
H      -2.208539    0.068993    0.301766
H      -0.906835   -0.839330   -2.000702
H       2.981786   -0.707975    0.368541
H       2.260406    0.927610    0.219549
H       1.350277   -0.946974    3.024960
H       0.056163   -2.503919    0.136530
H       1.837930   -2.483543    0.330931
