19

C       0.249476    1.425131   -0.243511
C      -0.128928    0.010159    0.113025
C      -1.607622   -0.358619    0.198483
C      -1.663144   -1.708797    0.937747
O      -1.645641   -2.736555   -0.060427
C      -0.391014   -1.730550    1.820443
C       0.604677   -0.843603    1.093202
N       0.779909   -1.051135   -0.353518
H       1.335766    1.543382   -0.232742
H      -0.103746    1.683138   -1.248791
H      -0.189128    2.143040    0.459208
H      -2.145515    0.407312    0.770017
H      -2.092304   -0.440220   -0.779975
H      -2.575317   -1.803666    1.540709
H      -1.588962   -3.586320    0.389096
H      -0.608825   -1.311275    2.810916
H      -0.031552   -2.755402    1.978401
H       1.487986   -0.497702    1.624060
H       0.250577   -1.865559   -0.659509
