16

O      -0.725459    0.942689    0.701507
C       0.194388    0.858383   -0.072934
C       1.385214    1.768989   -0.068224
C       1.555999    2.803133    1.075449
C       1.718277    3.949582    0.035530
C       1.532251    2.937290   -1.134714
C       2.846254    2.236407   -1.530142
O       3.761873    2.475438   -2.265391
N       2.609218    1.201600   -0.635713
H       0.215351    0.096707   -0.883952
H       0.646611    2.880368    1.673139
H       2.405120    2.615236    1.735149
H       0.917275    4.688619    0.082085
H       2.674871    4.475329    0.028295
H       0.801889    3.145977   -1.914058
H       3.282214    0.581899   -0.202119
