21

O      -0.103169    1.419958    0.048495
C      -0.035479   -0.000304   -0.015113
C      -1.449179   -0.536273   -0.008883
C      -2.324847   -0.142035   -1.228232
C      -3.522106   -1.141866   -1.138271
C      -3.148604   -1.970467    0.106024
C      -1.621116   -2.073642    0.000662
O      -3.337499   -1.147643    1.266117
C      -2.261016   -0.191072    1.257420
H       0.793951    1.765824    0.050695
H       0.482934   -0.332030   -0.929493
H       0.519515   -0.408079    0.845786
H      -2.633022    0.904301   -1.181196
H      -1.760825   -0.274641   -2.157417
H      -4.483872   -0.645979   -0.989607
H      -3.600122   -1.769883   -2.031543
H      -3.712596   -2.893077    0.248714
H      -1.273914   -2.554181   -0.918813
H      -1.169157   -2.562815    0.867939
H      -1.662554   -0.305827    2.172210
H      -2.661965    0.827483    1.234350
