20

C      -0.045796    1.557468    0.032584
C      -0.040993    0.029135   -0.017503
C       0.723136   -0.526080   -1.227713
N       2.167499   -0.220982   -1.166064
C       2.770203   -1.340840   -1.247599
N       1.961000   -2.462573   -1.381709
C       0.625781   -2.047839   -1.346846
N      -0.436166   -2.737068   -1.394939
C      -0.301069   -4.180679   -1.505888
H       0.974823    1.948122    0.058428
H      -0.543930    1.979125   -0.847707
H      -0.575971    1.917245    0.919659
H       0.411776   -0.377410    0.894942
H      -1.060461   -0.367711   -0.068489
H       0.314926   -0.067764   -2.138601
H       3.849108   -1.461774   -1.225433
H       2.277828   -3.416350   -1.384811
H       0.248413   -4.481181   -2.412083
H       0.221371   -4.619441   -0.640609
H      -1.291958   -4.638385   -1.555350
