18

C      -0.131209    1.461549    0.127472
C      -0.024705   -0.042153   -0.040266
O      -1.339976   -0.586104    0.140198
C      -1.451358   -1.910206    0.029037
N      -2.634570   -2.490984    0.182335
N      -2.319291   -3.803884   -0.003723
C      -3.343167   -4.819346    0.078205
C      -1.006625   -3.929311   -0.249945
N      -0.411959   -2.746028   -0.238799
H       0.853235    1.920801   -0.002450
H      -0.813514    1.887518   -0.613424
H      -0.504100    1.715668    1.123610
H       0.347998   -0.313867   -1.034294
H       0.656098   -0.484994    0.695416
H      -2.885526   -5.794222   -0.100376
H      -3.804910   -4.810400    1.068989
H      -4.115948   -4.637273   -0.673188
H      -0.529837   -4.881708   -0.429102
