23

C      -0.144922    1.542507    0.011603
C       0.041400    0.043302    0.078917
C       1.328435   -0.688523   -0.295000
C       2.643043    0.085745   -0.347666
C       3.137934    0.155298    1.123277
C       4.045564    1.343270    1.434766
C       1.847952    0.080349    1.983244
C       0.835691   -0.693665    1.130955
O       0.312974   -1.883194    1.656078
H       0.746759    2.095490    0.317449
H      -0.388833    1.858474   -1.009039
H      -0.966628    1.865271    0.661208
H      -0.841869   -0.516876   -0.222123
H       1.219539   -1.583167   -0.897593
H       3.373506   -0.414138   -0.990642
H       2.509415    1.094085   -0.759661
H       3.697992   -0.769482    1.313233
H       3.523221    2.292738    1.265090
H       4.378348    1.330499    2.478294
H       4.939575    1.339734    0.801636
H       2.016073   -0.454885    2.921688
H       1.492788    1.085446    2.244174
H      -0.417350   -1.653720    2.240731
