15

N      -0.310658    1.375470   -0.183093
C      -0.081437   -0.035543   -0.018984
C      -0.415905   -0.630567    1.335485
C      -1.347105   -0.853899    0.171214
O      -2.561092   -0.195740    0.089329
C       1.072914   -0.614457   -0.790209
F       2.249990   -0.113166   -0.372561
F       1.139761   -1.949147   -0.674862
F       0.972071   -0.322748   -2.101427
H       0.385702    1.926094    0.308891
H      -0.268983    1.627114   -1.166384
H       0.188447   -1.460303    1.683072
H      -0.730984    0.072332    2.098519
H      -1.385589   -1.846506   -0.263140
H      -2.345567    0.750717    0.098203
