17

C      -0.018454    1.452488   -0.042467
N       0.021872    0.005053   -0.034728
C       0.023586   -0.857594   -1.135346
C      -0.019555   -0.360251   -2.541316
O       0.000375   -1.489158   -3.394189
C       0.070106   -2.115293   -0.612102
N       0.097882   -2.074627    0.775630
C       0.067719   -0.803393    1.059479
O       0.077662   -0.252552    2.289744
H       0.853760    1.868840   -0.557808
H      -0.924889    1.818566   -0.536299
H      -0.015921    1.804462    0.989028
H      -0.927020    0.249286   -2.707131
H       0.839765    0.306256   -2.740981
H      -0.032550   -1.176361   -4.302292
H       0.085359   -3.047647   -1.151486
H       0.110672   -0.992743    2.908349
