17

O      -0.173229    1.389225    0.165208
C      -0.028113    0.002812    0.021457
C       0.756702   -0.311034   -1.237117
O       1.174677    0.563440   -1.957058
C       0.655299   -0.619034    1.247901
C       2.024656   -0.005237    1.680109
C       1.480283    0.035287    3.115809
O       1.987824    0.144295    4.192596
C       0.047708   -0.246068    2.637040
H       0.254411    1.780886   -0.613442
H      -1.017727   -0.476765   -0.096544
H       0.929850   -1.383766   -1.458227
H       0.719189   -1.703754    1.120052
H       2.940544   -0.575602    1.511030
H       2.147642    1.009612    1.286846
H      -0.532939    0.680642    2.586456
H      -0.519660   -1.003108    3.182858
