17

O      -0.066195    1.368739   -0.044463
C       0.060242   -0.012270   -0.003175
C      -0.566841   -0.747399    1.142279
C       0.940059   -0.792344    0.945489
O       1.497955   -1.899551    0.272590
C       1.187746   -1.834186   -1.098212
C      -0.231951   -2.118743   -1.567262
C       0.250398   -0.702050   -1.360570
O       0.449853    0.170878   -2.431813
H       0.522423    1.672894   -0.747942
H      -0.901249   -0.115142    1.958908
H      -1.167366   -1.635231    0.980983
H       1.599733   -0.353274    1.685132
H       2.018382   -2.087505   -1.747370
H      -0.309413   -2.446349   -2.599432
H      -0.957525   -2.555980   -0.892035
H      -0.417695    0.449104   -2.749308
