22

C       0.026457    1.524118    0.009324
C      -0.062986   -0.006413    0.003165
C      -1.479178   -0.526679    0.013533
C      -2.595847   -0.278123   -1.049236
C      -3.252876   -1.195455    0.026460
C      -4.661400   -1.725965    0.036717
C      -1.928867   -2.018934    0.011868
C      -2.577183   -0.286147    1.097403
H       1.068333    1.858355    0.001339
H      -0.469162    1.952427   -0.868176
H      -0.453032    1.944349    0.899597
H       0.454331   -0.402262   -0.881027
H       0.470125   -0.410241    0.874270
H      -2.988071    0.740982   -1.127322
H      -2.437188   -0.719670   -2.038878
H      -4.859051   -2.339998   -0.849129
H      -4.843522   -2.347014    0.920999
H      -5.391513   -0.908789    0.046360
H      -1.718152   -2.593447   -0.896394
H      -1.702406   -2.600193    0.912013
H      -2.401379   -0.735071    2.080808
H      -2.967907    0.732326    1.189905
