16

N      -0.097306    1.058256   -0.090464
C      -0.368259   -0.139913    0.184550
O      -0.277527   -1.080339   -0.789108
C      -0.640051   -2.392229   -0.442664
C      -2.150216   -2.577486   -0.253572
O      -2.885890   -1.647548   -0.062595
C      -2.614753   -4.040679   -0.318841
C      -3.943433   -4.275217    0.216337
C      -5.039666   -4.471339    0.663757
H      -0.192307    1.636468    0.741565
H      -0.662450   -0.544471    1.160270
H      -0.278214   -3.040064   -1.247128
H      -0.144983   -2.726559    0.484306
H      -2.567194   -4.333045   -1.378728
H      -1.869408   -4.671125    0.185595
H      -6.011336   -4.638322    1.058429
