18

N       0.891229   -0.150913    1.054649
C       0.046530    0.157222    0.023177
O       0.172648    1.153531   -0.659287
C      -1.131342   -0.791224   -0.100953
C      -1.684244   -1.481059   -1.313120
C      -0.671047   -2.208198   -2.238540
C       0.764173   -2.096544   -1.817303
C      -0.159096   -3.010774   -1.053553
C      -1.181475   -2.298477   -0.120207
H       1.717039    0.413573    1.174704
H       0.861911   -1.059517    1.483948
H      -1.951160   -0.396057    0.500806
H      -2.711241   -1.323490   -1.616740
H      -0.959144   -2.568490   -3.217251
H       1.451334   -2.628173   -2.470169
H       1.185194   -1.188042   -1.409454
H       0.013923   -4.077401   -0.992427
H      -1.774189   -2.855221    0.595561
