14

N      -0.142781   -1.176093   -0.253117
C      -0.064358   -0.033815   -0.093589
C       0.037887    1.404045    0.075827
C      -0.369167    2.292853   -1.129985
O       0.852298    3.056212   -1.041067
C       1.346888    2.264587    0.045374
C       0.929961    2.817363    1.423013
N      -0.252443    1.909644    1.426087
H      -0.440649    1.758930   -2.084382
H      -1.268884    2.900961   -0.976861
H       2.356729    1.887080   -0.117159
H       1.611447    2.604888    2.253212
H       0.718713    3.890743    1.387489
H      -1.164193    2.337710    1.546254
