15

O      -0.174110    1.405035    0.033470
C      -0.030481    0.005264    0.010532
C       0.668862   -0.500944   -1.271029
C      -0.015766   -0.097274   -2.490681
C      -0.588046    0.230466   -3.494415
C       0.725590   -0.512619    1.258228
C       0.091475   -0.103566    2.508082
N      -0.411070    0.206106    3.500891
H       0.688363    1.811969   -0.108463
H      -1.052310   -0.386005    0.033011
H       1.703259   -0.125640   -1.281064
H       0.744713   -1.595275   -1.231116
H      -1.094462    0.523764   -4.380562
H       0.786622   -1.606825    1.235932
H       1.756867   -0.136652    1.246270
