27

C       0.651969    1.456121    0.068537
O       0.349385    0.086814   -0.047301
C       0.725894   -0.510790   -1.286695
C       2.235965   -0.773743   -1.337329
C      -0.066925   -1.816874   -1.419565
C      -1.558704   -1.741675   -1.836455
C      -1.696428   -1.170136   -3.260591
C      -2.107281   -3.182407   -1.832016
C      -2.393253   -0.893136   -0.859846
H       1.733533    1.656251    0.073453
H       0.199464    2.044723   -0.745704
H       0.236018    1.798303    1.019896
H       0.462737    0.178668   -2.105602
H       2.522875   -1.489054   -0.559636
H       2.521912   -1.186262   -2.309968
H       2.811218    0.144049   -1.185963
H       0.450935   -2.452380   -2.149194
H       0.010764   -2.330486   -0.452606
H      -1.117098   -1.756829   -3.982875
H      -2.743312   -1.187178   -3.582987
H      -1.355728   -0.131624   -3.321499
H      -2.041823   -3.626975   -0.832817
H      -3.159145   -3.201613   -2.137661
H      -1.547636   -3.825007   -2.521260
H      -2.083576    0.154099   -0.864514
H      -3.454050   -0.936387   -1.133050
H      -2.292438   -1.257189    0.167318
