9

O      -0.065501   -0.039975    0.000361
C      -0.003436    1.166805    0.005188
C       1.210631    1.935061    0.000386
C       2.227713    2.578020   -0.003727
C      -1.305550    1.994578    0.017301
O      -1.331859    3.194786    0.022493
C      -2.530766    1.179618    0.021981
N      -3.524060    0.588395    0.026066
H       3.130227    3.141453   -0.008058
