20

N      -0.061459   -1.169785   -0.150106
C      -0.040812   -0.016231   -0.077350
C      -0.006420    1.446946    0.030375
C      -0.834789    1.889946    1.259902
C      -1.095460    3.404346    1.339863
C       0.098593    4.254017    1.706184
C       1.269663    4.273266    1.070798
C       1.634743    3.449222   -0.141455
C       1.464178    1.927733    0.012579
H      -0.501437    1.839013   -0.870117
H      -1.798388    1.371273    1.218765
H      -0.331677    1.549781    2.171679
H      -1.513205    3.741598    0.378907
H      -1.887198    3.568595    2.077261
H      -0.030015    4.912595    2.561852
H       2.040204    4.946620    1.438619
H       1.048326    3.783692   -1.010899
H       2.679989    3.643670   -0.400748
H       1.962921    1.587516    0.926733
H       1.967888    1.433175   -0.824637
