18

C       0.422027    1.388011    0.376069
C       0.159144   -0.110080    0.196730
N       0.464895   -0.804857    1.446303
C      -1.340800   -0.379594   -0.132544
C      -2.253830    0.184012    0.857112
N      -2.985393    0.655898    1.616857
C       0.938439   -0.768256   -0.979593
N       1.437209    0.046118   -1.946026
O       1.048523   -1.980682   -1.025706
H       1.491078    1.585778    0.508587
H       0.060114    1.974290   -0.474825
H      -0.102611    1.743524    1.265830
H       0.574823   -1.794630    1.233247
H       1.362475   -0.490051    1.804309
H      -1.592716    0.032937   -1.116509
H      -1.488687   -1.462445   -0.190716
H       1.424427    1.046983   -1.874382
H       1.954407   -0.378735   -2.699433
