16

O       0.084639    1.346575   -0.185617
C      -0.026608   -0.034105    0.115550
C      -1.447781   -0.512951    0.108197
C      -2.593392   -0.167771    1.060385
N      -3.353615   -1.371100    0.510020
C      -2.008191   -1.878507   -0.032266
C      -2.162203   -0.944320   -1.223261
C      -3.610922   -0.883264   -0.879949
O      -4.640918   -0.656244   -1.427020
H      -0.292724    1.489612   -1.060185
H       0.581796   -0.655336   -0.561467
H       0.391225   -0.150509    1.121844
H      -2.331581   -0.338839    2.107696
H      -3.121258    0.784791    0.952716
H      -1.647191   -2.894199    0.024147
H      -1.650257   -0.951077   -2.176900
