20

C      -0.081129    1.484559    0.416398
C      -0.148906   -0.014143    0.214673
C      -1.315523   -0.676831   -0.379776
O      -0.113877   -0.495618   -1.129723
C       1.313598    2.025413    0.251786
C       2.524966    1.690891    1.147940
C       3.056615    3.145839    0.926055
C       1.837338    3.421743    0.035839
N       1.756246    2.467146   -1.065014
H      -0.741912    1.978374   -0.302364
H      -0.447929    1.712263    1.426908
H       0.462278   -0.601222    0.904005
H      -1.553229   -1.705771   -0.112194
H      -2.163817   -0.075301   -0.705177
H       2.254583    1.508144    2.191647
H       3.155816    0.864798    0.802878
H       3.064062    3.728954    1.850148
H       4.031239    3.254529    0.437981
H       1.309827    4.363684   -0.070211
H       2.663433    2.090856   -1.336234
