18

C      -0.120228    1.562113    0.097491
C      -0.030409    0.026926   -0.015170
C      -1.379999   -0.547804    0.025130
N      -2.455700   -0.968371    0.052134
C       0.715190   -0.448422   -1.300191
C       2.145668    0.130542   -1.417478
N       2.768062   -0.338761   -2.647893
C       0.791654   -1.913268   -1.331939
N       0.910440   -3.062748   -1.346177
H       0.869354    2.000543    0.238895
H      -0.573009    1.993216   -0.799970
H      -0.738028    1.837207    0.954948
H       0.513461   -0.362684    0.854044
H       0.149148   -0.125683   -2.181189
H       2.068976    1.219509   -1.474408
H       2.696622   -0.112545   -0.492196
H       3.644185    0.147149   -2.804637
H       2.985858   -1.328652   -2.581079
