16

N      -0.157345    1.471293   -0.372432
C      -0.292068    0.110963   -0.411648
N      -1.056944   -0.511758    0.396270
C      -1.113388   -1.944703    0.310957
C      -1.974489   -2.446561    1.468155
O      -2.320676   -3.591431    1.641879
C      -1.577594   -2.480816   -1.088783
N      -1.879379   -3.801866   -1.100669
O      -1.574644   -1.768098   -2.070718
H       0.168961    1.929811   -1.207015
H      -0.867208    1.967639    0.146538
H       0.346201   -0.369223   -1.158589
H      -0.130035   -2.427740    0.463372
H      -2.253910   -1.635672    2.169511
H      -2.053514   -4.274570   -0.222885
H      -2.248355   -4.183462   -1.957236
