15

O       0.064983   -0.014673    0.041401
C      -0.022864    1.178946    0.020665
C      -1.167720    2.228560   -0.008290
C      -0.034260    3.264932   -0.024792
C       0.075090    4.555447   -0.750022
C       0.072120    4.545219    0.787492
C      -1.073305    5.022551    1.505435
N      -2.012552    5.383847    2.077150
N       0.924201    2.188326    0.002362
H      -1.783516    2.192467   -0.908229
H      -1.800516    2.239091    0.880372
H       1.016809    4.814837   -1.221596
H      -0.807176    4.943287   -1.246570
H       1.023993    4.737995    1.272011
H       1.933508    2.171293   -0.001514
