17

C      -0.008748    1.466001   -0.019851
C       0.015575   -0.027462    0.056165
N       0.013201   -0.772574   -1.048051
N       0.032754   -2.043925   -0.599039
C       0.025246   -2.145328    0.757445
C       0.019041   -3.437051    1.501215
C       0.023882   -0.841084    1.220400
N      -0.012264   -0.452641    2.584648
H       0.800152    1.912234    0.570864
H       0.106996    1.785225   -1.057691
H      -0.951881    1.881964    0.356253
H       0.043279   -2.794946   -1.267321
H       1.016393   -3.889325    1.572429
H      -0.338520   -3.259390    2.519134
H      -0.642272   -4.172619    1.030278
H       0.890683   -0.554305    3.036999
H      -0.286102    0.518250    2.679042
