19

C      -0.213673    1.472324    0.057363
C      -0.062631   -0.012008   -0.004843
N      -0.113770   -0.724934   -1.112473
C       0.069824   -2.029093   -0.723789
C       0.233904   -2.108445    0.631275
N       0.148313   -0.808400    1.094666
C       0.256709   -0.363301    2.455076
C      -0.291746   -1.186929    3.589408
C       1.203036   -1.028341    3.418408
H       0.676104    1.966721    0.464815
H      -0.369068    1.833926   -0.959754
H      -1.072250    1.780393    0.665705
H       0.073728   -2.836818   -1.439947
H       0.398739   -2.942109    1.292887
H       0.150839    0.711174    2.525906
H      -0.783177   -0.667990    4.404741
H      -0.730368   -2.146519    3.340317
H       1.763986   -1.881887    3.055037
H       1.745709   -0.399651    4.115419
