18

C      -0.032133    1.496459   -0.190226
C       0.011189    0.010429    0.183005
C      -1.354818   -0.640557    0.102345
O      -1.945640   -0.587759   -1.229789
C      -2.217038   -2.003601   -1.224352
C      -1.500591   -2.184802    0.139046
N      -0.480782   -2.956074   -0.566208
C      -1.026872   -2.803273   -1.834229
O      -0.653875   -3.131081   -2.924252
H       0.967645    1.938348   -0.155628
H      -0.428001    1.623061   -1.201412
H      -0.672947    2.060386    0.496254
H       0.699469   -0.519512   -0.484679
H       0.390500   -0.114730    1.206252
H      -2.048855   -0.173982    0.816540
H      -3.246998   -2.264243   -1.468163
H      -1.923711   -2.657643    1.023993
H       0.469909   -3.176931   -0.302584
