19

C      -0.484604    1.457726    0.082786
C       0.046900    0.025874   -0.013274
C       0.915237   -0.208493   -1.288243
C       2.278232   -0.788320   -0.939395
C       2.397821   -1.694699    0.272424
O       1.276409   -1.708804    1.127100
C       0.893837   -0.340723    1.211159
O       2.102632    0.412201    1.210868
C       2.947677   -0.301506    0.331922
H       0.344610    2.168412    0.152819
H      -1.081446    1.712427   -0.798600
H      -1.119845    1.590403    0.965894
H      -0.798406   -0.671409   -0.015840
H       0.397060   -0.876210   -1.984090
H       1.058573    0.740787   -1.817342
H       2.938439   -1.014351   -1.771733
H       2.965128   -2.615377    0.292919
H       0.375507   -0.174448    2.159263
H       3.987943   -0.015945    0.411490
