20

C      -0.007688    1.399662   -0.068061
O      -0.007299   -0.005660   -0.017536
C       0.634094   -0.590217   -1.124234
C       0.579455   -2.077325   -0.975697
C       0.029475   -2.852120    0.019810
C       0.253473   -4.213130   -0.326266
C       0.932128   -4.223702   -1.520212
N       1.131276   -2.920056   -1.916795
C       1.811126   -2.510014   -3.125927
H       1.015114    1.809589   -0.077196
H      -0.535581    1.777450   -0.958481
H      -0.523279    1.757297    0.826156
H       0.145832   -0.265892   -2.064209
H       1.681285   -0.235053   -1.190572
H      -0.474058   -2.468726    0.892183
H      -0.048956   -5.082884    0.236504
H       1.294399   -5.037204   -2.129037
H       1.150678   -1.929788   -3.780455
H       2.695742   -1.902592   -2.902756
H       2.135370   -3.399047   -3.669222
