17

O      -0.679981    0.914734    1.001453
C      -0.063960    1.027162   -0.028724
C       1.304888    1.683301   -0.110967
C       1.404047    2.766720   -1.202704
C       2.663340    3.659819   -1.120870
C       3.176623    3.712091   -2.537169
C       2.501000    2.912364   -3.370667
C       1.434011    2.198007   -2.637866
O       0.718099    1.318186   -3.062815
H      -0.461573    0.654000   -0.992819
H       1.530463    2.101918    0.874498
H       2.042289    0.894807   -0.318649
H       0.513569    3.406521   -1.146599
H       2.451709    4.660344   -0.727371
H       3.424611    3.228404   -0.457344
H       4.023251    4.331648   -2.814308
H       2.691464    2.749411   -4.423417
