17

C      -0.104310    1.646039   -0.185157
C      -0.042672    0.146352    0.063985
C       0.739344   -0.644116   -1.061588
C       2.015973   -0.614277   -0.132088
C       1.005480   -0.417526    0.970266
C       0.429341   -1.082901    1.971932
C      -1.046308   -0.952768    1.800001
O      -1.941015   -1.379120    2.470032
O      -1.283223   -0.294947    0.593083
H       0.857039    2.028393   -0.539748
H      -0.860224    1.860288   -0.946457
H      -0.377238    2.174422    0.731926
H       0.354471   -1.657708   -1.176072
H       0.817840   -0.147273   -2.031045
H       2.636613   -1.508806   -0.080489
H       2.644259    0.256712   -0.334171
H       0.852280   -1.764684    2.695239
