19

C      -0.183558    1.518463   -0.112879
C      -0.065541    0.033586   -0.000672
C      -0.015939   -1.104236   -0.963259
O       1.180307   -1.686467   -0.447488
C       0.905298   -0.947488    0.775394
C      -0.328219   -1.668951    1.370039
C      -1.081053   -1.110440    0.156714
C      -2.552989   -1.111127   -0.122111
O      -3.045148   -2.368700   -0.571927
H       0.746230    1.962832   -0.485287
H      -0.983085    1.792343   -0.809420
H      -0.414334    1.981917    0.853214
H      -0.239050   -1.190934   -2.018954
H       1.797125   -0.708142    1.351632
H      -0.232649   -2.752822    1.498345
H      -0.668182   -1.200575    2.298510
H      -3.106795   -0.767373    0.766929
H      -2.779955   -0.404383   -0.929034
H      -2.811005   -3.027199    0.089833
