13

C       0.115854   -3.760963   -0.019710
C       0.066208   -2.553029   -0.012276
C       0.015029   -1.197886   -0.003996
C      -0.041088    0.016008    0.003553
C      -0.093425    1.413471    0.012020
C      -1.148881    2.311213    0.030977
N      -0.696562    3.598769    0.032166
C       0.618197    3.509092    0.014276
N       1.038041    2.219187    0.001535
H       0.154250   -4.821910   -0.026168
H      -2.201173    2.073339    0.043564
H       1.308087    4.339764    0.009772
H       1.987950    1.885870   -0.012812
