19

C       0.003860    1.486153   -0.095905
C       1.318307    0.771578    0.034318
C       0.006840   -0.009241    0.042426
C       0.434305   -0.750229   -1.255874
C       0.803515    0.118836   -2.427258
C       1.754154    0.035586   -1.264037
C       2.836281   -1.017005   -1.306499
O       2.194908   -2.211353   -1.774491
C       0.843582   -2.203424   -1.294176
H      -0.301095    2.007737    0.806857
H      -0.303594    1.993122   -1.003967
H       2.006540    0.979912    0.843941
H      -0.496891   -0.510578    0.859417
H       1.123442   -0.427680   -3.309048
H       0.260634    1.028326   -2.651589
H       3.662222   -0.818806   -1.997195
H       3.255757   -1.158123   -0.296674
H       0.776962   -2.633958   -0.281347
H       0.269446   -2.838806   -1.976218
