27

C       0.254011    1.789140   -0.381789
C       0.224296    0.280588   -0.119387
C       0.957526   -0.515337   -1.208309
C       0.891068   -2.054095   -1.104523
C       1.373937   -2.687671   -2.429776
C       1.147448   -4.197792   -2.569867
C       1.608937   -2.659223    0.128782
C       3.075421   -2.268377    0.283115
O       0.975947   -2.294554    1.357929
H       1.282650    2.166692   -0.407495
H      -0.210379    2.037265   -1.343304
H      -0.280741    2.340656    0.398054
H       0.656542    0.058951    0.859484
H      -0.820448   -0.058360   -0.072079
H       0.532337   -0.232161   -2.181260
H       2.007408   -0.195352   -1.248124
H      -0.172001   -2.330592   -0.994668
H       0.847631   -2.181995   -3.248353
H       2.437299   -2.459501   -2.579490
H       1.763522   -4.781820   -1.879859
H       0.099757   -4.459702   -2.381786
H       1.392953   -4.530919   -3.583315
H       1.563567   -3.754284    0.027077
H       3.184368   -1.192487    0.443868
H       3.499764   -2.780112    1.150980
H       3.656745   -2.550184   -0.599139
H       0.038348   -2.498062    1.279538
