18

C      -0.198172    1.569697   -0.045591
C       0.019694    0.031928   -0.023960
C       0.849672   -0.380232    1.212668
C      -1.291477   -0.628801    0.051136
N      -2.318378   -1.143477    0.172243
C       0.678166   -0.346239   -1.384315
O       0.008798   -0.579930   -2.352765
C       2.203643   -0.343674   -1.431091
O       2.615499   -0.474362   -2.763225
H       0.764184    2.086510   -0.104524
H      -0.807428    1.858924   -0.904172
H      -0.705111    1.887940    0.868919
H       0.312556   -0.105847    2.123979
H       1.024620   -1.458777    1.237634
H       1.813192    0.135777    1.224780
H       2.570413    0.585033   -0.961103
H       2.554667   -1.172733   -0.793360
H       3.573731   -0.555359   -2.773667
