19

O       0.035532   -0.123916   -0.126613
C       0.005858    1.076022   -0.031202
C       1.221812    1.962760   -0.031302
C       1.041165    3.295216   -0.796116
O       1.013106    4.061109    0.419854
C       1.379558    2.906124    1.211410
C       0.526747    2.717611    2.427763
C       1.042034    1.855664    3.558171
C       0.953204    3.346981    3.732054
H      -0.964036    1.619685    0.050967
H       2.100052    1.365460   -0.276535
H       1.891167    3.557626   -1.438016
H       0.113080    3.404464   -1.371066
H       2.435788    2.965771    1.515445
H      -0.541227    2.686723    2.237290
H       0.329623    1.226028    4.078060
H       2.026912    1.413291    3.449919
H       1.877312    3.915544    3.737162
H       0.179500    3.749046    4.375752
