15

O      -0.001327   -0.009464    0.081055
C      -0.030301    1.189920   -0.007761
C      -1.274820    2.082581   -0.087257
C      -0.828387    3.340128   -0.864615
C       0.689092    3.391882   -0.681353
O       1.064214    3.250312    0.696200
C       1.172927    2.091403   -0.145374
C       1.492589    4.253813   -1.497991
C       2.121367    4.994841   -2.204869
H      -2.095359    1.539984   -0.559076
H      -1.583841    2.332467    0.932648
H      -1.053796    3.246044   -1.931195
H      -1.294201    4.261389   -0.505779
H       2.168805    1.694749   -0.312461
H       2.690409    5.645722   -2.822223
