20

C      -0.298232    1.606081   -0.093521
C       0.054172    0.110844    0.014900
C       0.778132   -0.427738   -1.180675
C       2.039861   -0.884990   -1.260844
C       3.110751   -1.010948   -0.229511
N       2.330215   -1.305100   -2.578843
C       1.255813   -1.145870   -3.429678
O       1.225990   -1.427263   -4.605905
C       0.148697   -0.543938   -2.552070
H       0.605905    2.213782   -0.199461
H      -0.935698    1.803858   -0.961155
H      -0.836080    1.945441    0.797319
H       0.652988   -0.051885    0.917621
H      -0.875733   -0.456655    0.164482
H       3.433735   -2.053770   -0.119905
H       3.996482   -0.425993   -0.506836
H       2.766390   -0.659449    0.743937
H       3.207781   -1.692697   -2.884187
H      -0.731997   -1.197856   -2.573124
H      -0.168521    0.414792   -2.979099
