22

C      -0.017182    1.595490   -0.087532
C       0.004939    0.055728   -0.035495
C      -1.417316   -0.501403    0.162589
C       0.670339   -0.535207   -1.252121
C       1.791292   -1.260724   -1.265667
C       2.167416   -1.742010   -2.645808
C       1.254417   -0.890828   -3.564018
C       0.094530   -0.414909   -2.655093
H       0.992291    2.001170   -0.203780
H      -0.624123    1.957674   -0.924409
H      -0.446304    2.006238    0.832606
H       0.603936   -0.237676    0.836448
H      -2.072393   -0.221634   -0.669692
H      -1.408910   -1.593556    0.231197
H      -1.862886   -0.105632    1.081308
H       2.362525   -1.521364   -0.379865
H       3.231334   -1.609735   -2.874312
H       1.964775   -2.818077   -2.751898
H       1.813813   -0.019520   -3.919826
H       0.907983   -1.434591   -4.446751
H      -0.791315   -1.057794   -2.759502
H      -0.237581    0.599737   -2.902046
