24

C      -5.363029   -1.010881   -2.050487
C      -4.397165   -1.946439   -1.318783
C      -2.927306   -1.531576   -1.473337
C      -1.991119   -2.442359   -0.705192
C      -1.381713   -3.641497   -1.349241
N      -0.549534   -2.507863   -0.960230
C       0.055422   -1.648226   -1.949153
C       1.290858   -2.097999   -2.670262
C       0.018344   -1.842958   -3.451175
H      -6.402174   -1.328969   -1.920766
H      -5.279651    0.015698   -1.676574
H      -5.153753   -0.987490   -3.125812
H      -4.654082   -1.976611   -0.251717
H      -4.522382   -2.971832   -1.689179
H      -2.655741   -1.520494   -2.534144
H      -2.805864   -0.500302   -1.112334
H      -2.225313   -2.509699    0.358037
H      -1.215186   -4.560400   -0.792563
H      -1.606168   -3.789356   -2.404091
H       0.054985   -0.615456   -1.611353
H       2.120672   -1.407197   -2.770292
H       1.584430   -3.133910   -2.536317
H      -0.489331   -2.708443   -3.861071
H      -0.044210   -0.959596   -4.078393
