17

C      -0.141246    1.575030   -0.001676
C       0.102440    0.055263    0.030665
C       0.687517   -0.461900   -1.243432
C       0.100428   -0.770783   -2.436557
C      -1.312019   -0.702561   -2.927640
O      -1.759806    0.632387   -3.126371
O       1.056639   -1.147374   -3.293297
N       2.291496   -1.070731   -2.585864
N       2.039146   -0.671817   -1.418509
H       0.797603    2.115537   -0.155370
H      -0.822016    1.830647   -0.818532
H      -0.581252    1.915764    0.940131
H       0.782139   -0.203036    0.848151
H      -0.844546   -0.460343    0.228756
H      -1.404752   -1.307591   -3.838741
H      -1.981486   -1.126202   -2.173422
H      -1.213406    1.030213   -3.812996
