18

O       0.082109    1.280760   -0.158026
C      -0.127512   -0.112943   -0.302122
C      -1.439922   -0.573429    0.349962
C      -1.605714   -2.075149    0.283780
C      -2.865347   -2.824316    0.142180
C      -3.917275   -2.103345   -0.697851
C      -2.807718   -2.001814   -1.756648
O      -2.704160   -1.532736   -2.846922
N      -1.848011   -2.802720   -1.014998
H      -0.528981    1.734755   -0.746661
H      -0.108904   -0.422606   -1.356404
H       0.721245   -0.597642    0.193176
H      -1.438582   -0.264193    1.401740
H      -2.278047   -0.055917   -0.129833
H      -0.835845   -2.611970    0.835767
H      -3.043491   -3.753228    0.670996
H      -4.718769   -2.765357   -1.036389
H      -4.354532   -1.176066   -0.320814
