17

O       0.092747    1.403928   -0.132709
C       0.044930    0.002615   -0.013755
C       0.659382   -0.657354   -1.266279
O       0.169812   -2.001660   -1.230549
C      -1.104555   -1.974125   -0.639792
C      -1.229835   -1.857410    0.895130
C       0.024179   -1.646774    1.669831
C       0.714885   -0.600446    1.211987
C      -1.369720   -0.652960   -0.018953
H      -0.146700    1.778144    0.721466
H       0.323685   -0.131276   -2.173106
H       1.751226   -0.695478   -1.251275
H      -1.851289   -2.549596   -1.177860
H      -2.092818   -2.330083    1.352426
H       0.339882   -2.312937    2.464175
H       1.700910   -0.285302    1.534161
H      -2.263022   -0.054462   -0.147952
