23

C      -0.020440    1.577276    0.010693
C       0.017074    0.046514    0.002154
C       0.692226   -0.499143   -1.267341
C       0.752361   -2.031611   -1.285195
C       1.460738   -2.583048   -0.025775
C       0.776761   -2.045175    1.252848
C       0.716472   -0.512611    1.252520
C       1.514246   -4.041409   -0.034074
C       1.535357   -5.243826   -0.040791
H       0.993696    1.994240    0.003161
H      -0.545905    1.968102   -0.867282
H      -0.528870    1.958643    0.902746
H      -1.020637   -0.320859    0.010174
H       0.162830   -0.139356   -2.157626
H       1.712635   -0.093148   -1.330422
H      -0.263241   -2.445588   -1.323030
H       1.268978   -2.387320   -2.182392
H       2.494405   -2.204824   -0.033687
H      -0.237972   -2.459632    1.305770
H       1.310496   -2.410406    2.136091
H       1.737950   -0.107213    1.300294
H       0.204341   -0.162414    2.156619
H       1.565332   -6.305018   -0.046762
