21

C      -0.017735    1.446873   -0.351133
C      -0.287690    0.051094    0.221326
N      -1.665374   -0.362007   -0.020136
C      -1.891459   -1.191544   -0.945579
N      -1.129554   -1.911282   -1.866935
C      -2.289539   -2.518725   -2.536135
C      -3.190612   -1.824115   -1.477474
O      -3.857664   -2.731495   -0.650791
C      -4.596836   -2.098786    0.381552
H       0.992885    1.783859   -0.098022
H      -0.116420    1.450847   -1.441878
H      -0.735591    2.167513    0.050930
H       0.447605   -0.665412   -0.180512
H      -0.133718    0.077103    1.306804
H      -0.251470   -1.652996   -2.288220
H      -2.455906   -2.187728   -3.566757
H      -2.312840   -3.610585   -2.483398
H      -3.883122   -1.076613   -1.893271
H      -5.063704   -2.893178    0.968174
H      -3.949058   -1.493034    1.025400
H      -5.384291   -1.450794   -0.034446
