14

N      -0.007516    1.395949   -0.092698
C       0.022340    0.008425   -0.041310
N      -1.158977   -0.613758   -0.021954
C      -1.182313   -1.949352   -0.037216
C      -0.043111   -2.742411   -0.060373
O      -0.126094   -4.102719   -0.066670
C       1.177384   -2.065927   -0.071979
F       2.296688   -2.807780   -0.091875
C       1.241903   -0.691276   -0.066925
H       0.771852    1.872732    0.334738
H      -0.904102    1.773007    0.179636
H      -2.157144   -2.429610   -0.024285
H       0.771226   -4.455305   -0.084335
H       2.200875   -0.187975   -0.090871
