16

C      -0.196770    1.547031   -0.073608
C       0.060569    0.039552    0.018962
N       0.789975   -0.412286   -1.154959
C       1.898551   -1.026640   -1.021993
C       2.606601   -1.456736   -2.230453
N       3.718055   -2.089986   -2.270228
O       4.287459   -2.382067   -1.003008
C       3.636731   -1.976282    0.102495
N       2.534073   -1.348013    0.193164
H       0.744518    2.104426   -0.042604
H      -0.707416    1.795568   -1.008061
H      -0.817514    1.878551    0.764372
H       0.570144   -0.208556    0.956758
H      -0.904547   -0.484652    0.014187
H       2.169142   -1.231831   -3.199275
H       4.204020   -2.268462    0.984683
