22

C       1.053836   -0.557123   -0.822221
C       0.029408    0.164818    0.061997
C      -0.157867    1.618611   -0.403542
C      -1.330735   -0.520925    0.116699
N      -1.846442   -1.150816   -1.119034
C      -1.603264   -1.972983    0.056691
C      -0.740444   -3.233796    0.091745
O      -1.777387   -3.940993    0.810773
C      -2.637797   -2.785359    0.834730
H       1.978766    0.025324   -0.878653
H       1.313945   -1.544932   -0.432816
H       0.664000   -0.684872   -1.835446
H       0.411793    0.187150    1.092871
H      -0.861131    2.159489    0.239108
H       0.792803    2.160824   -0.390139
H      -0.547858    1.645870   -1.426959
H      -2.057477    0.040435    0.708072
H      -2.840862   -0.974883   -1.240885
H      -0.529612   -3.677818   -0.888398
H       0.184826   -3.177706    0.677524
H      -2.851356   -2.448475    1.858181
H      -3.587666   -2.963330    0.310121
