20

C      -0.027259    1.579619    0.024908
C       0.006088    0.057045    0.207083
C      -1.373748   -0.573325    0.049871
C      -2.050735   -0.778497   -1.351636
C      -1.099582   -1.988953   -1.569646
C      -1.577974   -2.119495   -0.095330
C      -3.003940   -1.808096   -0.659465
O      -4.068116   -1.417383    0.157469
H       0.961379    2.020499    0.185048
H      -0.354765    1.850772   -0.984367
H      -0.719067    2.049221    0.733425
H       0.728250   -0.375535   -0.491844
H       0.379916   -0.179560    1.212195
H      -2.029822   -0.102558    0.795631
H      -2.321993   -0.011073   -2.078813
H      -1.445653   -2.760411   -2.263591
H      -0.045856   -1.769759   -1.731254
H      -1.302172   -2.892910    0.624081
H      -3.410240   -2.574197   -1.324677
H      -3.772278   -0.733602    0.766553
