18

C      -0.104982    1.582956   -0.044846
C       0.043806    0.057345   -0.028565
C       0.743199   -0.456907   -1.290308
O      -0.085717   -0.132887   -2.396671
C       0.775374   -0.470338    1.229917
N       2.152093    0.028802    1.309993
C      -0.014153   -0.180709    2.448575
N      -0.594108    0.064953    3.418550
H       0.870916    2.080565   -0.079297
H      -0.655460    1.883987   -0.937842
H      -0.646419    1.941178    0.835624
H      -0.959462   -0.386054   -0.016668
H       1.736394    0.003457   -1.376634
H       0.890357   -1.546974   -1.213571
H       0.403554   -0.315731   -3.203537
H       0.834819   -1.562447    1.147196
H       2.148455    1.023005    1.517493
H       2.638378   -0.420668    2.079734
