13

F       0.371955    0.213449   -0.089338
C       0.020365    1.499377   -0.004151
F       1.118377    2.243478   -0.200757
F      -0.828613    1.759189   -1.007957
C      -0.613308    1.853279    1.320644
N      -1.530403    0.893662    1.895896
C      -0.283632    1.189479    2.624295
C       0.681483    0.050977    2.778916
O       1.543038    0.052719    3.620148
H      -0.841096    2.915972    1.371869
H      -2.331112    1.349894    2.322393
H      -0.311360    1.844838    3.492135
H       0.521934   -0.794701    2.084766
