13

N       0.053618    1.172077    0.591398
C       0.006206    0.018295    0.062488
N      -1.232179   -0.613157   -0.086046
C      -1.536406   -1.964405   -0.146985
O      -2.573437   -2.365598   -0.611274
N      -0.639528   -2.861486    0.490015
C       0.621935   -2.827077    0.342834
C       1.401873   -1.828496   -0.425944
N       1.131364   -0.589597   -0.536352
H       0.991291    1.557689    0.482690
H      -2.027790    0.006669   -0.168216
H       1.207058   -3.610000    0.834207
H       2.322045   -2.185044   -0.895425
