17

C       0.131147    1.296959   -0.358488
C       0.278254   -0.140923    0.063047
O       1.604645   -0.629097    0.313552
C       0.678101   -0.593921    1.416943
C       0.979706    0.339830    2.562430
C       0.166040   -1.959976    1.856216
N       0.563977   -2.982092    1.052932
O      -0.554873   -2.087877    2.828127
H       0.783532    1.960326    0.211169
H       0.385339    1.401203   -1.418492
H      -0.905916    1.623984   -0.229340
H      -0.332200   -0.841077   -0.510249
H       1.202333    1.350585    2.219851
H       0.122827    0.359903    3.238887
H       1.842292   -0.027960    3.127360
H       1.287717   -2.815406    0.372910
H       0.321749   -3.921854    1.318615
