19

C      -0.299567    1.501263    0.148425
C       0.036214    0.028747   -0.040242
C      -1.151961   -0.968114    0.168954
C      -0.305612   -1.725752    1.205057
O      -0.453050   -2.743876    1.813976
C       0.855482   -0.687515    1.100336
O       2.066884   -1.166343    0.569596
C       1.837469   -1.404923   -0.819775
C       0.908377   -0.267277   -1.279628
H       0.610843    2.108492    0.194428
H      -0.910897    1.878615   -0.679039
H      -0.861097    1.667192    1.074481
H      -2.047474   -0.513445    0.605870
H      -1.460575   -1.565841   -0.694781
H       1.062566   -0.135385    2.021807
H       2.808609   -1.413698   -1.319362
H       1.366307   -2.389067   -0.967122
H       0.320876   -0.536286   -2.161851
H       1.503340    0.617382   -1.527774
