21

C      -0.152666    1.621700   -0.197644
C      -0.040520    0.109660    0.017739
C       0.718736   -0.639956   -1.161509
O       1.618772   -1.630018   -0.608448
C       1.914413   -1.098825    0.636920
C       2.363118   -1.567030    2.041535
C       1.898464   -0.053020    2.162296
C       2.722413    0.221265    0.885344
C       0.674408   -0.471670    1.262774
H       0.819062    2.112645   -0.296377
H      -0.720817    1.837800   -1.109745
H      -0.680310    2.092666    0.637516
H      -1.063699   -0.277853    0.052030
H       0.040170   -1.164288   -1.838790
H       1.298834    0.087096   -1.746498
H       1.736198   -2.311975    2.537073
H       3.428254   -1.750839    2.202414
H       1.890826    0.531032    3.080623
H       3.806731    0.113647    0.968766
H       2.459110    1.100701    0.301347
H       0.023541   -1.191025    1.767831
