15

O       0.099093    0.470977    1.288598
C       0.026693    1.331138    0.437659
C      -1.299513    1.729478   -0.071096
C      -1.659616    2.496109   -1.105799
C      -0.860560    3.220778   -2.136563
C       0.631140    3.248936   -2.122884
C       1.527204    2.752530   -1.263441
C       1.365038    1.980720   -0.016688
O       2.328964    1.798981    0.695323
H      -2.088921    1.271831    0.519659
H      -2.731181    2.609445   -1.264514
H      -1.179910    2.845999   -3.123960
H      -1.209284    4.267387   -2.156682
H       1.037622    3.804231   -2.967108
H       2.578732    2.946528   -1.459037
