13

O       0.031548   -0.020436   -0.042606
C       0.042292    1.187381   -0.090538
C       1.263286    1.985875    0.010689
C       1.381820    3.439073    0.380403
C       1.799673    3.023721   -1.007925
C       3.074955    2.162925   -0.980488
O       4.067433    2.112344   -1.644637
N       2.602114    1.386510    0.081926
H      -0.887496    1.784504   -0.210278
H       0.459285    4.012262    0.421039
H       2.127970    3.697743    1.124336
H       1.317657    3.394707   -1.901289
H       2.771523    0.400814    0.220957
