16

O      -0.647588    0.799313   -0.481000
C       0.221284    0.948615    0.341007
C       1.337424    1.958476    0.233212
C       1.281517    3.034831   -0.868270
C       1.224144    4.071064    0.264060
C       0.090495    3.774910    1.169631
N       1.320741    2.980371    1.360950
C       1.972619    5.281952    0.299650
C       2.601723    6.307319    0.286049
H       0.241688    0.350836    1.279879
H       2.294605    1.428816    0.281363
H       2.197784    3.093620   -1.454873
H       0.417091    3.005696   -1.534551
H      -0.077856    4.466287    1.988197
H      -0.806793    3.308570    0.767914
H       3.156704    7.212762    0.285439
