20

C      -0.035323    1.487763    0.206294
N      -0.001854    0.045715    0.092362
C      -1.270154   -0.695747    0.252042
C      -0.490721   -1.717957    1.091770
O      -0.692620   -2.823016    1.494070
C       0.690570   -0.726037    1.157511
C       2.085498   -1.196892    0.866497
C       3.278765   -0.387189    1.322589
C       2.955054   -1.695332    1.993857
H       0.982266    1.885791    0.150216
H      -0.607379    1.915399   -0.623294
H      -0.491718    1.837880    1.152689
H      -2.030576   -0.179213    0.863579
H      -1.737664   -1.043801   -0.675100
H       0.664053   -0.211743    2.138349
H       2.183560   -1.705854   -0.087240
H       4.141030   -0.340664    0.667180
H       3.090823    0.527505    1.875631
H       2.547395   -1.666106    2.998674
H       3.592521   -2.550258    1.801088
