12

N       0.040086    1.238929    0.298508
C       0.106412    0.023317   -0.073439
C      -1.108538   -0.775557   -0.051986
N      -2.049564   -1.445433   -0.024543
N       1.200657   -0.665373   -0.597020
C       2.516915   -0.600792    0.012286
C       1.736583   -1.878903    0.004019
H       0.958723    1.683713    0.234868
H       3.346455   -0.463202   -0.674222
H       2.605166   -0.073966    0.960050
H       1.306404   -2.208729    0.945874
H       1.990811   -2.670665   -0.693332
