15

C      -0.057320    1.580357   -0.050188
C       0.008667    0.074516    0.001156
O      -1.160808   -0.599101   -0.370720
C       1.297756   -0.647869   -0.260608
O       2.421569    0.117629   -0.525435
C       0.695877   -0.643392    1.159227
C       1.368233    0.086309    2.190227
N       1.940318    0.662538    3.015139
H       0.886656    2.030309    0.258361
H      -0.266092    1.908357   -1.075180
H      -0.859292    1.943100    0.598400
H      -1.340364   -0.390894   -1.295180
H       1.223614   -1.601636   -0.782394
H       3.163718   -0.221306   -0.011618
H       0.213777   -1.561416    1.476684
