13

F      -0.012068    0.038182    0.003516
C      -0.015856    1.366244    0.010621
N      -1.195956    1.943348    0.029236
C      -1.221608    3.276705    0.036685
C      -0.071021    4.077920    0.025817
C       1.169611    3.417160    0.005969
C       1.206825    2.034174   -0.001896
C      -0.165890    5.496531    0.034639
C      -0.249528    6.697623    0.042136
H      -2.202233    3.742865    0.052082
H       2.086549    3.994917   -0.003011
H       2.135686    1.478382   -0.017075
H      -0.325127    7.756832    0.048743
