19

C      -0.542894    1.365388    0.138320
C      -0.056158   -0.061060   -0.048412
C       0.822682   -0.255483   -1.288520
C       1.490766   -1.652178   -1.320753
C       1.170753   -2.462264   -0.048211
O       1.988286   -3.591406    0.069212
C       1.331357   -1.573068    1.178696
O       2.003430   -1.902567    2.124921
O       0.697949   -0.391748    1.148822
H       0.304885    2.052699    0.213051
H      -1.161533    1.665249   -0.712473
H      -1.139267    1.452541    1.049894
H      -0.921013   -0.736175   -0.092361
H       0.203208   -0.090308   -2.175361
H       1.585581    0.530117   -1.286648
H       1.175229   -2.232146   -2.191484
H       2.578661   -1.561335   -1.380394
H       0.110900   -2.768790   -0.083786
H       2.380339   -3.531367    0.955222
