18

C      -0.202600    1.451768   -0.023495
N       1.152989    0.887243    0.060837
C      -0.017607   -0.020691    0.031690
C      -0.276790   -0.881031    1.217649
C      -0.619224   -2.124371    0.871006
C      -0.671173   -2.307118   -0.621900
C      -2.052667   -2.093631   -1.291312
O      -1.717187   -0.733505   -1.639409
C      -0.357124   -0.889961   -1.172894
H      -0.531049    1.988339    0.862677
H      -0.547919    1.875281   -0.963042
H       1.592690    0.903485   -0.857555
H      -0.174175   -0.507075    2.229520
H      -0.853230   -2.924197    1.564761
H      -0.095685   -3.159568   -0.989674
H      -2.227141   -2.707793   -2.184223
H      -2.927652   -2.148716   -0.634009
H       0.360394   -0.790206   -1.997459
