15

C      -0.029380    1.492883    0.083528
N       0.161648    0.055649   -0.042689
C       0.666404   -0.686719    0.975902
C       0.715075   -2.060096    1.153650
C       0.195301   -3.166048    0.298042
N       1.379858   -2.248761    2.328408
N       1.734824   -1.189719    2.884170
O       1.257767   -0.077029    1.983493
H       0.902634    1.955800    0.413583
H      -0.291220    1.897653   -0.896003
H      -0.817271    1.757815    0.801102
H      -0.469091   -0.435038   -0.655937
H       0.700196   -3.216800   -0.674659
H       0.356449   -4.119274    0.805754
H      -0.881210   -3.072114    0.105854
