19

C       0.000659    1.316272   -0.159293
O      -0.037157    0.015393    0.379247
C      -1.259966   -0.629563    0.177039
C      -1.631140   -1.189766   -1.252302
C      -1.793167   -2.573182   -0.600009
C      -2.794942   -3.626557   -0.955520
N      -0.441386   -2.898199   -0.090304
C      -1.347263   -2.045139    0.725989
H       0.981029    1.737575    0.075627
H      -0.129885    1.314934   -1.252117
H      -0.777799    1.962642    0.278165
H      -2.089426   -0.014540    0.561708
H      -2.555085   -0.765736   -1.652121
H      -0.834093   -1.136932   -1.997224
H      -2.546465   -4.102268   -1.911794
H      -2.830394   -4.410910   -0.191158
H      -3.800259   -3.201443   -1.048173
H      -0.492125   -3.832158    0.318852
H      -1.622745   -2.341531    1.731417
