18

O       0.059509    0.045143    0.333294
C       0.008580    1.227257    0.058131
N      -1.180454    1.882049   -0.134277
C      -1.311503    3.310570   -0.347375
C      -0.894982    4.149805    0.876164
O       0.286806    3.678540    1.502770
C       1.331401    3.392607    0.622380
C       2.200232    2.240266    1.017070
C       1.239652    2.090921   -0.138919
H      -2.002842    1.327337    0.049707
H      -0.723494    3.606830   -1.222107
H      -2.355442    3.532509   -0.586464
H      -0.784126    5.200564    0.562273
H      -1.664715    4.106996    1.652690
H       1.779241    4.262166    0.139270
H       3.260817    2.294225    0.800939
H       1.942381    1.727705    1.936680
H       1.657573    2.041879   -1.140908
