17

C       0.193732    1.467460   -0.020938
C      -0.078390   -0.052679   -0.075849
N      -1.494610   -0.407683   -0.040070
C       0.682492   -0.725525   -1.232827
C       1.971744   -1.185095   -0.600193
N       3.040940   -1.496684   -1.178061
O       1.800549   -1.233719    0.784491
C       0.594318   -0.686718    1.148394
O       0.194710   -0.704400    2.272192
H       1.264520    1.696842   -0.050857
H      -0.276996    1.951528   -0.883153
H      -0.225522    1.894597    0.894040
H      -1.839880   -0.266720    0.906395
H      -2.024283    0.214354   -0.643913
H       0.117261   -1.598587   -1.573014
H       0.878367   -0.083381   -2.092489
H       3.753461   -1.789322   -0.507476
