16

O       0.018577    1.484882   -0.090425
C       0.063069    0.071122    0.050385
C      -1.321501   -0.531973    0.036324
C      -2.245581   -0.421587    1.270922
O      -2.567817   -1.832345    1.209566
C      -1.683013   -2.046645    0.091165
C      -2.437826   -1.807419   -1.246749
O      -3.147872   -2.436580   -1.976802
N      -2.029922   -0.474840   -1.251893
H      -0.156843    1.681533   -1.016240
H       0.675449   -0.395638   -0.733952
H       0.542639   -0.126293    1.014484
H      -1.721804   -0.181020    2.203142
H      -3.126968    0.219111    1.165185
H      -1.002587   -2.889868    0.214970
H      -2.521182    0.308962   -1.663559
