17

N      -0.411941    0.756967   -1.341713
C      -0.555716   -0.443453   -0.985481
O      -1.002607   -0.720971    0.260780
C      -1.256162   -2.082063    0.572601
C      -2.670224   -2.500365    0.209924
O      -2.759782   -2.564983   -1.207683
C      -4.023647   -2.935277   -1.693253
C      -5.075105   -1.934659   -1.422007
N      -5.900820   -1.158634   -1.197952
H      -0.046915    0.794981   -2.291008
H      -0.341303   -1.338781   -1.581746
H      -0.534676   -2.740514    0.071270
H      -1.119316   -2.179313    1.653090
H      -2.886839   -3.486532    0.651644
H      -3.388360   -1.772534    0.611084
H      -3.924697   -3.056778   -2.775841
H      -4.353931   -3.898549   -1.273609
