22

C       0.543269    1.151249   -0.563232
C       1.344781   -0.147551   -0.402336
C       2.764427   -0.019740   -0.969605
C       1.366349   -0.590515    1.062470
N       0.123142   -1.248305    1.545625
C       1.358228   -2.038320    1.477447
C       1.394374   -3.208753    0.524244
C       2.019058    0.316937    1.977522
C       2.547184    1.082210    2.742277
H       1.019854    1.976935   -0.024575
H       0.472616    1.432494   -1.618761
H      -0.471200    1.028737   -0.172672
H       0.815627   -0.931620   -0.952428
H       3.332470    0.747092   -0.432904
H       3.315227   -0.962451   -0.888442
H       2.732418    0.262805   -2.026563
H      -0.068754   -0.963280    2.502614
H       1.863994   -2.226186    2.423388
H       0.844537   -3.002173   -0.395407
H       2.425927   -3.471612    0.267459
H       0.932945   -4.083653    0.995142
H       3.017373    1.754060    3.416979
