15

C      -0.278542    1.518827   -0.088835
C       0.073708    0.050077   -0.007945
O       1.291253   -0.258113   -0.781386
C       1.943584   -0.727457    0.328768
O       3.061726   -1.126657    0.401733
C       0.752676   -0.518230    1.268319
C       0.980766    0.349206    2.500198
H       0.551312    2.149019    0.240921
H      -0.522850    1.789860   -1.119891
H      -1.151345    1.735015    0.535950
H      -0.745062   -0.571520   -0.381484
H       0.325323   -1.482315    1.561201
H       1.430249    1.313035    2.248016
H       0.040941    0.536354    3.028471
H       1.659845   -0.161987    3.188331
