19

C       0.015399   -1.256062   -0.577715
C      -0.075320   -0.124917   -0.179653
C      -0.169003    1.240308    0.314696
C      -0.348691    1.352775    1.850429
C       0.059177    2.798580    2.141675
C       1.331914    2.992047    1.274854
C       1.084683    2.119496   -0.001326
C       1.651317    4.382801    0.989936
C       1.899531    5.534393    0.748171
H       0.090060   -2.253351   -0.934086
H      -1.041146    1.714802   -0.152839
H      -1.366257    1.110768    2.166479
H       0.330050    0.653316    2.351359
H      -0.721393    3.490858    1.806986
H       0.246906    2.998417    3.199335
H       2.174248    2.554183    1.824846
H       1.953971    1.494587   -0.213718
H       0.909459    2.744276   -0.878698
H       2.125642    6.549985    0.536989
