14

N      -0.017331    1.340455    0.141660
C      -0.044888   -0.013664    0.053863
N      -1.164406   -0.664019    0.051277
C      -1.082335   -2.036326    0.017548
N      -2.067272   -2.852479   -0.031504
C       0.287136   -2.624663    0.024815
N       0.352141   -3.974238    0.075978
N       1.382259   -1.930852   -0.007193
O       1.192409   -0.519309    0.001106
H       0.836774    1.813341   -0.101999
H      -0.888693    1.812066   -0.033330
H      -2.944968   -2.330766   -0.041489
H      -0.522469   -4.447697   -0.095866
H       1.226691   -4.433396   -0.113632
