20

C      -0.161024    1.537714    0.083418
C       0.016221    0.015729    0.018906
C       0.698229   -0.420893   -1.289600
C       0.925381   -1.936814   -1.359746
C       1.574311   -2.569074   -0.132327
O       2.008384   -3.698979   -0.147425
C       1.569184   -1.765453    1.135712
N       2.261996   -0.446843    1.072561
C       0.806216   -0.486194    1.217599
H       0.812956    2.038094    0.066658
H      -0.743959    1.902648   -0.768178
H      -0.680482    1.841288    0.998729
H      -0.977511   -0.454085    0.068100
H       0.084328   -0.105193   -2.140111
H       1.656728    0.099319   -1.375091
H      -0.040679   -2.453216   -1.463410
H       1.510466   -2.223371   -2.238581
H       1.709010   -2.364835    2.030625
H       2.713355   -0.277473    1.967258
H       0.388233   -0.237993    2.192182
