19

C      -0.126048    1.432774    0.593168
C      -0.051434    0.007322    0.073293
C       0.958864   -0.321307   -0.999677
C       1.160255   -0.828851    0.407478
C      -1.377385   -0.702042    0.018181
C      -2.246629   -0.613402   -1.179451
O      -1.518647   -1.798761   -0.905810
C      -2.093870   -1.002697    1.305775
O      -1.786898   -0.577062    2.388721
H       0.868778    1.888205    0.593561
H      -0.773762    2.051483   -0.039470
H      -0.514913    1.457857    1.613635
H       0.681427   -1.047541   -1.754249
H       1.589066    0.488549   -1.351019
H       1.930224   -0.376003    1.022286
H       1.015681   -1.890005    0.579085
H      -3.329029   -0.696295   -1.088113
H      -1.883753   -0.018805   -2.015869
H      -2.956566   -1.691654    1.162669
