17

C      -0.258607    1.278192    0.130225
N      -0.395968   -0.131954    0.441873
C       0.554267   -0.655631    1.106905
N       1.750790   -0.149206    1.604568
N       2.445594   -1.062696    2.384164
C       1.757648   -2.155649    2.279224
C       2.122415   -3.468592    2.893001
O       1.002242   -4.098320    3.498719
N       0.633105   -1.989027    1.508001
H       0.638534    1.497584   -0.472819
H      -1.126392    1.607851   -0.447027
H      -0.209222    1.917048    1.029877
H       1.959839    0.826539    1.715891
H       2.461788   -4.165916    2.118719
H       2.956131   -3.305377    3.586658
H       0.730960   -3.559717    4.250054
H      -0.108363   -2.655826    1.382469
