13

O      -0.022445    1.317142    0.009300
N       1.291980    1.834629   -0.000724
C       2.100398    0.815041   -0.013483
C       1.392403   -0.429985   -0.013500
C       0.054860   -0.024059    0.001453
C      -0.982405   -0.949217    0.006445
C      -0.577388   -2.277535   -0.004509
N       0.702538   -2.705859   -0.019045
C       1.672113   -1.800365   -0.023519
H       3.166213    0.995781   -0.022671
H      -2.025915   -0.662788    0.017944
H      -1.328943   -3.062320   -0.001503
H       2.694290   -2.170767   -0.035202
