25

C       0.148202    1.499746   -0.192227
C       0.024276   -0.007675    0.040204
O       0.644801   -0.390884    1.268342
C      -1.423791   -0.536274    0.081928
C      -1.420004   -2.072039    0.067147
C      -2.222147    0.038869    1.270409
C      -3.688049   -0.348242    1.285414
C      -4.182053   -1.535255    2.076210
C      -4.510693   -0.135043    2.531325
H       1.203011    1.784999   -0.285621
H      -0.354771    1.797759   -1.118324
H      -0.278757    2.069986    0.636911
H       0.526462   -0.519639   -0.798795
H       1.554961   -0.080222    1.252195
H      -1.901277   -0.187782   -0.845628
H      -0.921298   -2.462214    0.959054
H      -2.435397   -2.473471    0.036748
H      -0.881341   -2.450782   -0.808624
H      -1.746754   -0.277361    2.206013
H      -2.155881    1.133642    1.249736
H      -4.208619   -0.161321    0.347902
H      -4.978942   -2.143529    1.661785
H      -3.452537   -2.094556    2.652688
H      -4.001367    0.242791    3.412258
H      -5.531477    0.215976    2.426014
