18

C       0.049954    1.534355    0.060684
C      -0.013673    0.036067   -0.056990
C       0.008253   -0.595899   -1.233061
C      -0.046778   -2.091610   -1.397748
C       0.372333   -2.829603   -0.111863
C      -0.302081   -2.225084    1.104481
O      -0.924230   -2.877871    1.909173
C      -0.128798   -0.717356    1.251132
H       0.909520    1.847244    0.667904
H       0.132275    2.013219   -0.918446
H      -0.842671    1.930697    0.561561
H       0.062834   -0.006918   -2.146092
H      -1.061960   -2.399853   -1.687206
H       0.600623   -2.402250   -2.226030
H       0.145823   -3.897125   -0.152252
H       1.456717   -2.711264    0.019993
H       0.773169   -0.544441    1.860634
H      -0.962034   -0.339774    1.855734
