17

C      -0.001350    1.568419    0.026535
C       1.406016    2.120569   -0.053195
O       2.268452    1.830622    1.052079
C       2.503102    1.155880   -0.197532
C       2.134424   -0.304764   -0.214664
C       1.052605   -0.776292    0.791347
O       0.766476   -1.928273   -0.093684
C       0.857009   -0.758981   -0.987047
C      -0.021261    0.042630    0.018260
H      -0.498696    1.948382    0.927432
H      -0.578701    1.942365   -0.828669
H       1.519977    3.128511   -0.450093
H       3.422200    1.449780   -0.701829
H       2.976977   -0.991047   -0.312159
H       1.150500   -0.966281    1.859330
H       0.717633   -0.928180   -2.055901
H      -1.024337   -0.375758    0.122917
