19

C      -0.178500    1.561449    0.028840
C      -0.094354    0.037888   -0.007036
C      -1.443929   -0.613995   -0.302574
O      -1.931913   -0.293885   -1.594596
C       1.113484   -0.480998   -0.840078
N       1.898292   -0.603395    0.411804
C       0.665959   -0.582183    1.223520
C       0.740937    0.183874    2.468220
N       0.773528    0.790137    3.451877
H       0.796025    2.002651    0.252763
H      -0.499733    1.944471   -0.945589
H      -0.886767    1.905221    0.790279
H      -1.339947   -1.704655   -0.288654
H      -2.167171   -0.344030    0.483625
H      -2.253582    0.612389   -1.580427
H       0.893378   -1.432685   -1.341429
H       1.546205    0.210994   -1.568617
H       2.465398   -1.437675    0.512161
H       0.261208   -1.576531    1.465928
