16

N       0.024453    1.353011    0.008911
C      -0.033862    0.008945    0.001429
C      -1.248619   -0.658618    0.004652
C      -1.529952   -2.032531   -0.001172
C      -0.670761   -3.107400   -0.011690
C       0.736328   -3.061309   -0.019329
C       1.589604   -1.987614   -0.018565
C       1.348156   -0.570839   -0.009927
O       2.286791    0.237849   -0.011490
H       0.961123    1.738437    0.003752
H      -0.794217    1.933258    0.014195
H      -2.124444   -0.011331    0.013137
H      -2.590779   -2.272797    0.003463
H      -1.120558   -4.095303   -0.014432
H       1.226352   -4.033143   -0.027166
H       2.654788   -2.203006   -0.025799
