18

C      -0.399068    1.574581    0.078069
C       0.129474    0.139779   -0.090693
C       0.760641   -0.417343    1.150395
C       2.079538   -0.662562    1.368200
O       3.145560   -0.488509    0.562210
O       2.321440   -1.155724    2.603075
C       1.076823   -1.240394    3.243043
N       1.024038   -1.728962    4.545532
C       0.123517   -0.799167    2.389229
H       0.412435    2.260476    0.340342
H      -0.864955    1.932920   -0.845817
H      -1.147955    1.628070    0.875052
H      -0.697407   -0.509520   -0.407231
H       0.864368    0.115961   -0.902528
H       3.923167   -0.830353    1.017591
H       1.557546   -1.163859    5.199007
H       1.352287   -2.686992    4.620167
H      -0.931279   -0.754916    2.614137
