19

C       0.033476    1.550000   -0.226654
C       0.033663    0.051317   -0.014235
C       1.317964   -0.742357   -0.027754
C       0.526787   -0.606852    1.255701
C       1.076283    0.172959    2.430509
C       2.047264   -0.688267    3.268596
C       2.597224    0.033566    4.413474
N       3.021904    0.622502    5.312644
H       0.929911    2.025684    0.181022
H       0.001136    1.784752   -1.296058
H      -0.836731    2.021945    0.242946
H      -0.819728   -0.447394   -0.467044
H       1.345105   -1.701776   -0.532534
H       2.243766   -0.178113   -0.101619
H      -0.029905   -1.493233    1.553849
H       1.606362    1.067878    2.092148
H       0.261201    0.518948    3.076586
H       1.536330   -1.585818    3.636420
H       2.875177   -1.035008    2.640148
