17

C       0.350842    1.577912   -0.413448
C       0.089547    0.133282   -0.066588
N       1.254603   -0.754120    0.094130
C       0.384409   -0.490851    1.252331
C       1.019504    0.253000    2.418073
O       0.040518    0.756678    3.283976
C       1.955216   -0.680417    3.162353
O       1.820984   -0.900397    4.343073
H       1.254213    1.952228    0.073028
H       0.489933    1.688776   -1.493937
H      -0.493050    2.206693   -0.111816
H      -0.774213   -0.294057   -0.575047
H       1.072921   -1.676043   -0.291317
H      -0.294751   -1.277232    1.578737
H       1.651112    1.061547    2.013643
H       0.253461    0.387050    4.156259
H       2.757633   -1.147246    2.560349
