20

O       0.012511    1.380438    0.177925
C      -0.004055   -0.014681   -0.062001
C      -1.415848   -0.511347   -0.052673
C      -2.520893    0.237766   -0.043229
C      -3.782938   -0.590616   -0.027697
C      -3.271198   -2.029154   -0.297715
C      -1.764876   -1.966359   -0.030621
C      -0.816647   -3.049058   -0.396356
N      -1.215584   -2.870778    1.010870
H       0.914186    1.692507    0.060873
H       0.459098   -0.256700   -1.034507
H       0.587970   -0.555188    0.699568
H      -2.518137    1.320079   -0.020492
H      -4.291069   -0.508024    0.942776
H      -4.508517   -0.260353   -0.779615
H      -3.746409   -2.788420    0.326557
H      -3.448164   -2.296527   -1.345023
H      -1.193004   -3.955533   -0.864990
H       0.194989   -2.782501   -0.694579
H      -0.472253   -2.406098    1.528295
