15

O      -0.243374    0.518580    1.230432
C      -0.134551    1.394905    0.421156
O      -1.169737    1.759083   -0.368548
C      -0.878802    2.778084   -1.341987
O      -0.323763    3.898619   -0.744789
C       0.973734    3.638631   -0.211326
C       1.145241    2.174218    0.161231
C       2.394856    1.660036    0.720388
O       2.066741    1.415681   -0.650580
H      -0.223791    2.349117   -2.114143
H      -1.840590    3.062255   -1.767385
H       1.756052    3.902699   -0.935777
H       1.073196    4.280582    0.669027
H       3.221394    2.350874    0.881502
H       2.351430    0.794367    1.375857
