21

C      -0.064530    1.564596    0.143765
C      -0.018712    0.040263   -0.006921
C       0.729041   -0.459524   -1.252783
C       2.215704   -0.063759   -1.263309
C       2.983476   -0.724517   -2.374224
C       2.565258   -1.823602   -3.014533
C       1.317102   -2.522413   -2.640750
O       0.911864   -3.488406   -3.256292
C       0.598391   -1.983235   -1.409264
H       0.931633    1.994201    0.289081
H      -0.504328    2.036440   -0.742121
H      -0.671616    1.851968    1.007584
H       0.438836   -0.405497    0.887285
H      -1.044886   -0.346303   -0.044884
H       0.264834    0.005057   -2.135571
H       2.328189    1.022974   -1.346242
H       2.680369   -0.332104   -0.300099
H       3.928712   -0.265855   -2.658052
H       3.129776   -2.265375   -3.829762
H       1.042425   -2.479288   -0.532307
H      -0.446647   -2.302044   -1.457309
