21

C      -0.024927    1.370088   -0.106907
O      -0.021358    0.002608    0.224559
C      -1.280889   -0.620620    0.089844
C      -1.727202   -0.913253   -1.381244
C      -1.905017   -2.470236   -1.380975
C      -2.465458   -2.682930    0.046591
C      -1.235545   -2.042349    0.729472
C      -0.109794   -2.793716    0.033403
C      -0.511509   -3.056183   -1.213495
H       0.983710    1.750944    0.073093
H      -0.282483    1.545194   -1.162580
H      -0.734709    1.938478    0.515973
H      -2.040705   -0.010566    0.603703
H      -2.667884   -0.409669   -1.624228
H      -0.969888   -0.585699   -2.097378
H      -2.495154   -2.855282   -2.213366
H      -3.402242   -2.145268    0.232584
H      -2.587826   -3.736892    0.306421
H      -1.209097   -2.027176    1.819024
H       0.867481   -2.967764    0.463165
H       0.072652   -3.489352   -2.016068
