20

C       0.129279    1.179294   -0.499755
C      -0.240263    0.319021    0.722438
C      -1.546496   -0.320151    0.600113
C      -2.628845   -0.832413    0.469690
C      -3.940055   -1.469490    0.326309
N      -3.874047   -2.876553   -0.040409
C      -3.296887   -3.811190    0.909118
C      -4.276678   -3.303180   -1.272067
O      -4.231842   -4.446569   -1.672566
H       1.114415    1.633946   -0.360611
H       0.154279    0.572306   -1.408604
H      -0.601599    1.978846   -0.647569
H       0.524525   -0.453496    0.872976
H      -0.223486    0.938374    1.628290
H      -4.502953   -1.367113    1.265292
H      -4.525054   -0.951478   -0.442905
H      -3.880223   -3.828107    1.837832
H      -3.312682   -4.799727    0.450669
H      -2.266010   -3.530586    1.150355
H      -4.670262   -2.466943   -1.883651
