13

O      -0.213633    1.417210   -0.014458
C      -0.085834    0.043893    0.000355
C      -0.251171   -0.850117   -1.195990
C      -1.199184   -0.979639   -0.014937
C      -0.509435   -1.704524    1.184134
O       0.831132   -2.079323    0.820667
C       0.568519   -0.724901    1.210013
H       0.544094    1.786143   -0.483050
H      -0.699161   -0.347732   -2.047882
H       0.459921   -1.633446   -1.426914
H      -2.265851   -0.824205   -0.099117
H      -0.989956   -2.268564    1.973775
H       1.144945   -0.294437    2.020771
