17

C      -0.204647    1.249966   -0.023005
N       0.090451   -0.175167    0.101378
C       1.500291   -0.506400   -0.140391
C       0.949241   -0.500455    1.248548
C       1.052015   -2.044935    1.344452
C       1.639387   -2.062077   -0.098127
N       0.502858   -2.885705   -0.504307
C      -0.147386   -2.819201    0.726059
O      -1.209293   -3.228333    1.099069
H       0.615439    1.907028    0.311254
H      -0.422475    1.478765   -1.070623
H      -1.094057    1.479453    0.570920
H       2.157885    0.197595   -0.636435
H       1.088532    0.211311    2.052484
H       1.578513   -2.463670    2.198685
H       2.627461   -2.460324   -0.327662
H       0.058847   -2.949768   -1.410470
