15

C      -0.009129    1.443120   -0.027903
C       0.000845   -0.047515    0.021407
N      -0.051400   -0.797113   -1.071090
N      -0.018197   -2.053295   -0.558795
C       0.049491   -2.009786    0.783072
C       0.101826   -3.238723    1.632269
O       0.028066   -4.357627    0.762313
N       0.063885   -0.755695    1.191996
H       0.895200    1.852367    0.433414
H      -0.064829    1.784175   -1.062964
H      -0.864538    1.843532    0.525291
H      -0.047542   -2.867194   -1.149838
H       1.033443   -3.233280    2.217358
H      -0.732547   -3.217121    2.348689
H       0.086177   -5.159238    1.288550
