14

N      -0.011761    1.039645    0.986929
C      -0.013811    0.062642    0.160912
C       1.216022   -0.331689   -0.542361
N       1.522737   -1.239192   -1.404214
N       0.685302   -2.141276   -1.917310
N      -0.609821   -2.418565   -1.763845
C      -1.427026   -1.793724   -0.987784
C      -1.317921   -0.659626   -0.058086
N      -2.337050   -0.249364    0.597632
H       0.925104    1.448125    1.051055
H       2.073294    0.286330   -0.275843
H       1.136243   -2.755989   -2.574778
H      -2.434276   -2.207271   -1.035609
H      -3.158970   -0.814644    0.366119
