18

C      -0.034615    1.514018    0.075963
N      -0.009485    0.069058    0.146822
C      -1.254469   -0.659776    0.469902
C      -0.431904   -1.590188    1.364070
C      -0.847913   -2.482565    2.459289
N      -0.240115   -3.016635    1.222528
C       0.716898   -0.563834    1.267946
C       2.066022   -1.034669    0.958169
N       3.140683   -1.390390    0.727717
H       0.978698    1.890709   -0.093037
H      -0.654141    1.827426   -0.769880
H      -0.434447    1.988423    0.991848
H      -1.986183   -0.060051    1.035374
H      -1.753888   -1.106071   -0.398020
H      -0.232958   -2.588323    3.349001
H      -1.914869   -2.613861    2.624857
H      -0.944097   -3.418943    0.608494
H       0.764917    0.067772    2.171066
