16

O       0.010797   -0.085255    0.088285
C      -0.016877    1.130791    0.036260
C      -1.328635    1.911728    0.042300
C      -1.195024    3.383879    0.448013
C      -0.031371    4.028272   -0.309101
C       1.274005    3.313176    0.035926
N       1.130714    1.867983   -0.092801
H      -1.733027    1.839522   -0.975965
H      -2.020566    1.363686    0.686255
H      -2.131450    3.916201    0.252049
H      -1.011866    3.459155    1.527940
H      -0.212463    3.962097   -1.389147
H       0.067302    5.089494   -0.060197
H       2.080042    3.645779   -0.627830
H       1.574474    3.580043    1.061506
H       1.969004    1.305030   -0.060748
