19

C       0.060723    1.606222   -0.031311
C       0.093563    0.075737    0.003263
C       0.740694   -0.539731   -1.239283
C       0.449635   -2.056052   -1.432698
O      -0.439600   -1.750378   -2.552506
C      -0.143595   -0.410449   -2.514062
O      -0.511818    0.438165   -3.261305
O       2.059322   -0.086366   -1.296862
C       2.759232   -0.307927   -2.511509
H       1.073264    2.011451   -0.088487
H      -0.498251    1.966965   -0.899437
H      -0.417200    1.998191    0.870951
H       0.662100   -0.275442    0.873042
H      -0.921533   -0.326321    0.100838
H       1.294444   -2.663357   -1.761830
H      -0.093197   -2.553097   -0.626789
H       2.899016   -1.377156   -2.721997
H       2.247746    0.159561   -3.361627
H       3.741587    0.151546   -2.387830
