15

C       0.046169    1.430659    0.050458
N      -0.083057   -0.011173    0.097461
C      -1.265874   -0.646270   -0.093128
O      -2.330924   -0.096518   -0.320175
C      -1.185761   -2.138911   -0.004361
N      -0.056888   -2.765404    0.238324
O      -0.365802   -4.112000    0.246857
C      -1.682817   -4.255446    0.006908
C      -2.269217   -3.045769   -0.162812
H       0.735245    1.741640   -0.742515
H      -0.942260    1.843366   -0.154229
H       0.409278    1.827438    1.004958
H       0.726960   -0.584710    0.277776
H      -2.043694   -5.271721   -0.010599
H      -3.296726   -2.802183   -0.367581
