18

O       0.149181    0.026576   -0.075697
C       0.023360    1.215351    0.010751
C      -1.155962    2.151308    0.307706
C      -0.108800    3.258845    0.639392
C       1.033923    2.380273    0.033894
C       2.331086    2.175680    0.810808
C       3.235829    1.121850    0.135454
C       4.476515    0.902421    0.874080
N       5.452893    0.745689    1.472062
H      -1.741369    2.360263   -0.593679
H      -1.839032    1.827376    1.096313
H      -0.265798    4.229265    0.168205
H       0.013500    3.403664    1.715407
H       1.252707    2.687190   -0.997839
H       2.870195    3.125300    0.896664
H       2.103185    1.848590    1.831394
H       2.693412    0.174914    0.048249
H       3.489955    1.437460   -0.883512
