11

N       0.009897    1.294042   -0.117141
C      -0.047164   -0.037056   -0.018606
N      -1.167307   -0.697083    0.059021
C      -1.024112   -2.053332    0.154034
N       0.044281   -2.778343    0.178639
O       1.258186   -2.046874    0.093364
C       1.288386   -0.705953   -0.005068
O       2.329792   -0.101363   -0.076556
H       0.917406    1.728049   -0.172492
H      -0.835673    1.838855   -0.134349
H      -1.939083   -2.635206    0.220485
