17

O       0.122251    1.389306    0.107289
C       0.063507    0.019078    0.041943
C       0.657611   -0.978739    1.029831
N       0.009031   -1.905687   -0.004261
C      -1.187801   -0.915437   -0.022484
C      -1.727862   -0.917416   -1.437143
N      -1.304718    0.298193   -2.188733
C      -0.467115   -0.934484   -2.212579
C       0.551834   -0.938987   -1.092467
H      -0.357099    1.692454   -0.678716
H       1.745690   -1.072392    1.078103
H       0.208268   -1.051580    2.023713
H      -1.868573   -1.000942    0.824582
H      -2.625478   -1.447755   -1.728895
H      -1.837154    0.347674   -3.055494
H      -0.333176   -1.478788   -3.138802
H       1.612992   -1.048075   -1.316799
