21

C       0.183970    1.076888    0.435490
C      -0.226478   -0.105909   -0.445142
C      -1.454880   -0.826323    0.090585
O      -1.759922   -1.906188   -0.784897
C      -2.866379   -2.641628   -0.394533
C      -2.867808   -4.132270   -0.579912
C      -1.495427   -4.671059   -0.181840
O      -1.549604   -4.000051    1.107420
C      -2.861609   -3.524485    0.821757
H       1.072143    1.574865    0.036097
H      -0.614719    1.824322    0.499082
H       0.415634    0.752496    1.455944
H      -0.436094    0.233820   -1.465974
H       0.594248   -0.828653   -0.517667
H      -1.269084   -1.212905    1.102711
H      -2.310919   -0.133307    0.148865
H      -3.833108   -2.169431   -0.588868
H      -3.625534   -4.669948   -1.133735
H      -1.477809   -5.756817   -0.041941
H      -0.641158   -4.345327   -0.782223
H      -3.583859   -3.506094    1.631041
