19

O       0.322889    1.285440   -0.192797
C       0.032230   -0.088798   -0.041787
C       0.523745   -0.744818    1.292427
C      -0.821251   -1.271067    1.826257
C      -1.441675   -1.906085    0.547026
C      -1.482284   -0.430968    0.070066
C      -1.768464   -0.065368    1.570893
C      -2.378610    0.046567   -1.022312
O      -3.169712   -0.652420   -1.609320
H       0.074685    1.743054    0.617141
H       0.469205   -0.565106   -0.923487
H       1.255528   -1.539790    1.126040
H       0.983506    0.004731    1.945288
H      -0.815568   -1.791667    2.783609
H      -0.831293   -2.609402   -0.026453
H      -2.442490   -2.313040    0.698699
H      -2.804876   -0.267893    1.847469
H      -1.474753    0.923176    1.940575
H      -2.274029    1.127033   -1.266327
