27

C       0.085324    1.637691    0.036654
C      -0.110724    0.118392   -0.029836
C       0.670489   -0.525619   -1.169842
C       2.220541   -0.577008   -1.108273
C       2.167576   -1.953807   -1.819762
C       3.187628   -3.023881   -1.456578
C       0.659906   -2.082662   -1.389662
C       0.469004   -2.876243   -0.093216
C      -0.297095   -2.594987   -2.463421
H       1.139604    1.895104    0.185194
H      -0.243915    2.120078   -0.890628
H      -0.483640    2.077977    0.861606
H       0.189849   -0.326329    0.926749
H      -1.180055   -0.104205   -0.147714
H       0.368922   -0.048989   -2.112185
H       2.783397    0.224793   -1.593288
H       2.578689   -0.671480   -0.076320
H       2.194722   -1.792284   -2.904558
H       3.217236   -3.210390   -0.378307
H       2.969835   -3.975964   -1.954282
H       4.193694   -2.716420   -1.763950
H       1.139235   -2.546560    0.706284
H      -0.557469   -2.777799    0.276316
H       0.656716   -3.942483   -0.260756
H      -0.125100   -3.657101   -2.676805
H      -1.342638   -2.490424   -2.148613
H      -0.174187   -2.041953   -3.400934
