15

C      -0.044370    1.598858    0.038975
C       1.419327    2.023212    0.139199
C       2.277911    1.006878   -0.020698
C       1.519813   -0.260837   -0.175362
O       0.690236   -0.623477    0.948242
C       0.074510    0.095137   -0.118755
C      -0.200013   -0.880712   -1.260446
O       0.617335   -0.493041   -2.373447
C       1.235642   -1.236265   -1.312737
H      -0.622782    1.894807    0.921155
H      -0.532193    2.046251   -0.834738
H       1.704736    3.045984    0.363797
H       3.357551    1.079159    0.002397
H      -1.073308   -1.486621   -1.467560
H       1.711179   -2.173961   -1.570254
