17

C      -0.545181    0.926889    0.098314
O       0.048563   -0.349968   -0.059494
C       0.890998   -0.459273   -1.188832
C       1.698136   -1.770899   -1.108083
C       1.014646   -2.727033   -2.072519
O      -0.379641   -2.851556   -1.826948
C       0.040126   -2.010978   -2.919191
C       0.062355   -0.565042   -2.501457
O      -0.438942    0.359178   -3.090330
H       0.221153    1.712642    0.185998
H      -1.208179    1.182915   -0.736426
H      -1.125570    0.887834    1.022749
H       1.542363    0.424338   -1.263322
H       2.736476   -1.609790   -1.415140
H       1.696559   -2.155395   -0.085186
H       1.515529   -3.625207   -2.424622
H      -0.268506   -2.308644   -3.916262
