17

C       0.021547    1.589200   -0.045541
C      -0.004987    0.061720    0.080800
C       0.770852   -0.656107   -1.091856
O       1.666144   -1.691643   -0.540272
C       1.610106   -1.452743    0.783964
C       0.748707   -0.518820    1.244866
N       0.810513   -0.441477    2.617275
C       1.717246   -1.330691    2.956358
N       2.251065   -1.996719    1.854930
H       1.051664    1.960047   -0.060296
H      -0.479406    1.922774   -0.961241
H      -0.488939    2.048983    0.805351
H      -1.053890   -0.265982    0.080402
H       0.112908   -1.157071   -1.803879
H       1.405502    0.056674   -1.628676
H       2.048930   -1.554501    3.958368
H       2.959369   -2.710400    1.860348
