16

C       0.124680    1.498984   -0.058781
O       1.226377    0.584082    0.001370
C      -0.077905    0.048580   -0.002860
C      -0.681347   -0.820045    1.111051
C      -1.384553   -1.686096    0.013965
C      -0.621925   -0.899266   -1.064085
C      -0.870309   -0.714000   -2.493989
O       0.209602   -1.529088   -2.021898
H      -0.037064    2.097689    0.837119
H       0.010218    2.030823   -1.002519
H       0.085478   -1.366102    1.665400
H      -1.336441   -0.307600    1.818419
H      -1.146388   -2.751081    0.032015
H      -2.469057   -1.561162   -0.028832
H      -1.690004   -1.250414   -2.971393
H      -0.573738    0.213040   -2.983749
