16

C      -0.296734    1.362615    0.314050
N       0.055370   -0.019976   -0.004662
C       0.537919   -0.446462   -1.292958
C       1.044794    0.592076   -2.284595
C       2.201733    1.300594   -1.580957
O       2.802557    2.269879   -1.952562
C       2.525148    0.508291   -0.273718
O       3.516699    0.673984    0.387487
C       1.442112   -0.500348   -0.073902
H       0.247725    2.145645   -0.229589
H      -1.363800    1.490931    0.109245
H      -0.135752    1.518794    1.383790
H       0.089476   -1.357009   -1.680930
H       1.436286    0.105307   -3.186026
H       0.282550    1.305086   -2.612677
H       1.666519   -1.401160    0.488263
