19

O      -0.020673   -0.036437    0.206668
C       0.027992    1.154039    0.000030
C       1.297268    1.935277   -0.024250
C       2.598098    1.169935    0.227385
C       3.625412    2.326714    0.114756
C       2.680070    3.488603   -0.175258
C       1.549379    3.020017   -1.149314
C       0.579060    4.001920   -0.453848
C       1.384887    3.345063    0.690016
H      -0.906055    1.727434   -0.185724
H       2.595928    0.687513    1.208333
H       2.750104    0.382725   -0.515715
H       4.193392    2.480814    1.037504
H       4.348293    2.174771   -0.692803
H       3.096379    4.488709   -0.314759
H       1.647303    2.809175   -2.216280
H       0.774187    5.064311   -0.624167
H      -0.491550    3.799053   -0.513715
H       1.291321    3.512884    1.764986
