17

C       0.119642    1.490720   -0.031583
C      -0.051623    0.013219   -0.040927
C      -1.141636   -0.803465    0.043581
C      -2.583400   -0.433273    0.196194
C      -0.630698   -2.151913   -0.029931
N      -1.419439   -3.306265    0.105223
C       0.719410   -2.043733   -0.154127
O       1.086112   -0.722665   -0.154925
H       0.789442    1.809127    0.775372
H       0.549150    1.853203   -0.973097
H      -0.843467    1.985135    0.112009
H      -3.180176   -0.733081   -0.675821
H      -3.028547   -0.922466    1.070699
H      -2.712178    0.645442    0.317172
H      -2.287874   -3.243154   -0.412290
H      -0.932184   -4.147424   -0.176521
H       1.520228   -2.759422   -0.232372
