22

C      -1.820547    0.191712    0.980025
C      -0.472156    0.194294    0.255314
C      -0.019113    1.616851   -0.082951
N       0.529928   -0.408682    1.143081
C       0.711693   -1.851569    1.227982
C      -0.077588   -2.867341    0.431661
C       1.765421   -0.986055    0.580306
C       1.992743   -1.060461   -0.837465
C       2.217144   -1.103214   -2.019516
H      -1.747965    0.747334    1.920357
H      -2.588695    0.661152    0.357608
H      -2.149801   -0.825048    1.213026
H      -0.574923   -0.362491   -0.688119
H       0.111904    2.201795    0.832948
H       0.930555    1.606364   -0.624550
H      -0.763148    2.115483   -0.712115
H       0.937258   -2.179464    2.242994
H      -0.183248   -2.588388   -0.617698
H       0.437193   -3.833254    0.466136
H      -1.075125   -3.010651    0.859447
H       2.657926   -0.744573    1.154887
H       2.416320   -1.143400   -3.061775
