15

C      -0.009705    1.521989    0.010301
C      -0.008579    0.012991    0.002215
C      -0.003780   -0.700239   -1.200174
C       0.025257   -2.091761   -1.218959
C       0.047481   -2.776989   -0.013251
F       0.072787   -4.115287   -0.020681
C       0.039547   -2.104899    1.199970
C       0.010383   -0.713222    1.196620
H       1.010856    1.924888    0.002475
H      -0.522364    1.927636   -0.866998
H      -0.505156    1.918123    0.901693
H      -0.025337   -0.159423   -2.141390
H       0.026140   -2.646933   -2.149557
H       0.051408   -2.670120    2.124422
H      -0.000022   -0.182648    2.143832
