18

C       0.213956    1.158280    0.771914
C      -0.028694   -0.062097   -0.086660
C      -1.387680   -0.517603   -0.448594
N      -0.524462    0.108988   -1.473645
C       1.475774    1.877675    0.391078
N       2.178741    2.677029    1.164303
C       3.221666    3.124229    0.385276
C       3.150784    2.586374   -0.871542
N       2.026374    1.790651   -0.858125
H      -0.648227    1.836244    0.688336
H       0.285696    0.884543    1.829598
H       0.748691   -0.820969   -0.018636
H      -1.584063   -1.574790   -0.599107
H      -2.235212    0.052320   -0.077203
H      -0.831221    1.072637   -1.598624
H       3.964095    3.803207    0.776378
H       3.773363    2.680382   -1.745488
H       1.680485    1.216906   -1.611723
