15

C      -0.004357    1.497973    0.021943
C      -0.065084    0.011990   -0.070543
C       0.510776   -1.004745   -1.096099
C       0.819147   -1.915978    0.080364
N       0.267595   -0.906241    1.081404
C      -1.074423   -0.983611    0.390041
C      -0.510824   -2.031257   -0.623680
O      -1.080076   -3.014052   -1.381505
H       1.031413    1.853051   -0.016765
H      -0.558298    1.967765   -0.798326
H      -0.442017    1.830625    0.968386
H       0.980435   -0.913232   -2.065072
H       1.632080   -2.604976    0.273444
H      -2.008375   -0.871081    0.930440
H      -1.263404   -3.772877   -0.814672
