20

C      -0.243448    1.233354   -1.528875
C      -0.026119   -0.105769   -0.854340
C       1.347116   -0.641848   -0.499609
C       2.630891    0.109296   -0.784405
C       0.382404   -0.243668    0.601163
C       0.614531    0.956899    1.505665
C      -0.685600    1.439268    2.114894
O      -1.090570    2.572179    2.073169
H       0.470131    1.995353   -1.207631
H      -0.149267    1.136519   -2.616094
H      -1.245911    1.619645   -1.315647
H      -0.731222   -0.861664   -1.192363
H       1.457957   -1.716863   -0.622779
H       2.525350    1.190921   -0.675637
H       3.429434   -0.211683   -0.106119
H       2.971503   -0.083145   -1.807728
H      -0.076697   -1.075869    1.131187
H       1.275969    0.660665    2.334029
H       1.081730    1.801214    0.996491
H      -1.275705    0.640146    2.623920
