16

C      -0.034588    1.396562    0.022351
N      -0.205855   -0.046909   -0.025176
C       0.099948   -0.791180    1.188248
C      -0.045825   -0.641237   -1.235500
N       0.127009   -0.051713   -2.377223
N       0.109493   -1.128019   -3.268371
C      -0.002697   -2.335442   -2.663909
O      -0.013480   -3.458310   -3.079029
O      -0.126132   -1.996338   -1.297713
H       1.024664    1.690386    0.049047
H      -0.492908    1.843988   -0.860454
H      -0.528475    1.778792    0.919506
H      -0.488623   -0.379031    2.012646
H      -0.166751   -1.839130    1.057677
H       1.165020   -0.728166    1.457486
H       0.293090   -0.979360   -4.243917
