20

C      -0.041068    1.566668   -0.020382
C      -0.034712    0.034782    0.028407
C       0.737989   -0.490737    1.239849
O       2.083211   -0.057666    1.120116
C      -1.448816   -0.539353    0.027465
O      -2.091217   -0.155650   -1.179632
C      -3.415607   -0.612386   -1.251212
C      -4.010901   -0.177852   -2.518959
N      -4.508567    0.148969   -3.507916
H       0.981517    1.948397   -0.025174
H      -0.559556    1.923291   -0.912767
H      -0.553272    1.980274    0.857607
H       0.472563   -0.346439   -0.867060
H       0.277780   -0.108549    2.166886
H       0.679398   -1.591228    1.272775
H       2.559231   -0.325444    1.911195
H      -1.425175   -1.639494    0.102547
H      -2.021645   -0.161738    0.892459
H      -3.471512   -1.712615   -1.197710
H      -4.028634   -0.218129   -0.423518
