18

O       0.225927    0.381608    1.002412
C      -0.149253    0.323833   -0.373836
C      -1.489968   -0.381317   -0.415522
C      -2.079185   -0.930020   -1.759662
C      -2.193307   -2.323346   -1.119588
C      -0.809315   -2.790435   -0.719625
C      -1.542775   -1.803200    0.150227
O      -1.882183   -2.079620    1.461170
H       1.100607    0.776143    1.064547
H      -0.223220    1.332541   -0.809974
H       0.596597   -0.235174   -0.959585
H      -2.234466    0.232576    0.100380
H      -3.036350   -0.472740   -2.016857
H      -1.418602   -0.874644   -2.632494
H      -3.018587   -3.012716   -1.245481
H      -0.775828   -3.786009   -0.289231
H       0.060602   -2.526138   -1.318544
H      -1.167088   -1.728771    2.006334
