27

C       0.817466   -0.478027   -1.016998
C       0.068344   -0.045026    0.248550
C      -1.444592   -0.327428    0.248775
C      -2.189490    0.356814    1.447969
C      -3.128737    1.088641    0.452268
C      -2.237293    0.612778   -0.725820
C      -1.767718   -1.834908    0.067966
C      -1.076659   -2.712970    1.125563
C      -3.271484   -2.162103    0.045609
H       1.854252   -0.128009   -0.992075
H       0.843113   -1.566056   -1.130480
H       0.350425   -0.062623   -1.916989
H       0.532526   -0.506068    1.128890
H       0.200836    1.036549    0.380500
H      -2.671553   -0.306680    2.170559
H      -1.537885    1.036323    2.005129
H      -4.135984    0.665875    0.426289
H      -3.220367    2.169835    0.580628
H      -1.606119    1.410003   -1.129392
H      -2.747483    0.136772   -1.567099
H      -1.371122   -2.122261   -0.915948
H      -1.360963   -3.762533    0.997224
H       0.013461   -2.659362    1.066942
H      -1.370929   -2.416287    2.139148
H      -3.814252   -1.595120   -0.715046
H      -3.417727   -3.224796   -0.174004
H      -3.744326   -1.965835    1.013915
