15

O      -0.133851    0.256046   -0.732913
C       0.133556    1.072700    0.118107
C       1.334349    1.866580    0.142863
C       2.330250    2.549069    0.193920
C       3.535771    3.383452    0.258855
O       4.490591    3.023769   -0.738633
C       4.652874    4.092558   -1.672843
C       3.860007    5.233742   -1.104090
C       3.228119    4.845608   -0.004939
H      -0.553626    1.271646    0.966121
H       3.996140    3.233763    1.248291
H       5.723604    4.321390   -1.766908
H       4.290896    3.791805   -2.668278
H       3.825583    6.215943   -1.557599
H       2.566694    5.422848    0.625961
