13

N      -0.034232    1.381777    0.149991
C      -0.032487    0.002338    0.039741
N      -1.155829   -0.652987    0.025138
N      -1.078356   -2.002507    0.007281
C       0.051418   -2.815424   -0.020966
O      -0.038308   -4.031156   -0.040868
C       1.288390   -2.040291   -0.028865
C       1.226943   -0.697090    0.003462
F       2.323415    0.063248   -0.011813
H       0.755054    1.844015   -0.275751
H      -0.923774    1.804468   -0.074005
H      -1.971161   -2.475177    0.006003
H       2.229227   -2.573236   -0.061305
