21

C       0.044457    1.484726    0.332561
C      -0.084244    0.056708   -0.209098
C      -1.472653   -0.518226   -0.033262
C      -1.856409   -1.127854    1.299754
C      -1.661782   -2.007770    0.075068
O      -2.803314   -2.598445   -0.483271
C      -3.332876   -1.850129   -1.568732
C      -3.600030   -0.417036   -1.138892
O      -2.396592    0.242340   -0.773308
H       1.054339    1.873669    0.171506
H      -0.663579    2.150491   -0.167276
H      -0.163581    1.519047    1.407153
H       0.162728    0.039427   -1.277730
H       0.632831   -0.602463    0.293870
H      -1.114354   -1.148466    2.090946
H      -2.881384   -1.025930    1.638472
H      -0.786183   -2.652534    0.022010
H      -2.641487   -1.858584   -2.425546
H      -4.262502   -2.346033   -1.862350
H      -4.028810    0.165977   -1.959880
H      -4.317776   -0.415537   -0.303891
