17

O      -0.268051    0.190189    0.345150
C       0.131636    1.270815    0.004538
C       1.550065    1.541462   -0.478127
N       1.600882    2.562126   -1.502275
C       2.145439    3.794623   -1.276492
O       2.621612    4.122585   -0.200385
C       2.126487    4.730209   -2.447811
C       1.753837    6.147638   -2.155151
N       3.138284    5.795150   -2.449888
H      -0.517210    2.176447    0.022478
H       2.127543    1.929193    0.370390
H       2.003725    0.601944   -0.808473
H       1.251404    2.347129   -2.422105
H       1.896666    4.307548   -3.422820
H       1.245079    6.725174   -2.921382
H       1.485678    6.377587   -1.128342
H       3.643736    5.717237   -1.566461
