17

O       0.026298    0.044992   -0.101955
C       0.021762    1.242741    0.007048
N      -0.975730    2.192050    0.104659
C      -0.075498    3.340430    0.063555
C      -0.221824    4.579333   -0.753251
C      -0.230201    4.643855    0.770967
C       1.077818    2.345994    0.058883
C       2.385272    2.297335    0.743858
N       2.297340    2.428067   -0.721283
H      -1.975079    2.118382   -0.008862
H       0.658858    4.927916   -1.282460
H      -1.160849    4.751924   -1.268924
H      -1.176681    4.850906    1.259839
H       0.634240    5.060943    1.277707
H       2.758428    3.179034    1.257327
H       2.687213    1.345340    1.172894
H       2.474364    1.532467   -1.173320
