21

O       0.324285    1.240452   -0.510279
C       0.069491   -0.099175   -0.079851
C       0.773589   -0.439926    1.253649
C      -0.096927   -0.129437    2.481392
C      -0.550672    1.347602    2.592623
C      -1.902338    1.356714    1.820645
C      -2.052098   -0.116283    1.364830
C      -1.440180   -0.425054   -0.010578
O      -1.328480   -0.848516    2.359284
H      -0.039404    1.851766    0.134730
H       0.519048   -0.703303   -0.874181
H       0.992538   -1.513688    1.275530
H       1.729535    0.092975    1.294859
H       0.394041   -0.482379    3.392134
H      -0.709081    1.613353    3.640059
H       0.194015    2.044915    2.198479
H      -2.721290    1.627001    2.490795
H      -1.934040    2.059183    0.982986
H      -3.089509   -0.458930    1.402773
H      -1.955973    0.117739   -0.809854
H      -1.581151   -1.496401   -0.194230
