18

C       0.014858    1.477538   -0.009720
C       0.031407    0.022575    0.010873
C       0.029227   -1.181599    0.030760
C       0.046357   -2.620257    0.028839
C       1.178600   -3.259866   -0.761396
C      -0.465701   -3.337449    1.256963
C      -1.309114   -3.357814   -0.003029
C      -2.541290   -2.626107   -0.059434
N      -3.541730   -2.047911   -0.115317
H       0.894014    1.875450   -0.528287
H      -0.875582    1.853164   -0.525296
H       0.011841    1.890436    1.004988
H       2.145310   -2.959954   -0.346171
H       1.115255   -4.351773   -0.725246
H       1.146729   -2.945584   -1.808449
H       0.013567   -4.268178    1.539791
H      -0.822705   -2.731340    2.079931
H      -1.321101   -4.282291   -0.570953
