16

C       0.003203    1.402346   -0.037322
C      -0.002357   -0.051235   -0.008056
C      -0.004671   -1.255839    0.009371
C      -0.016377   -2.684482    0.053154
C       0.812641   -3.656149    0.946971
C       0.058657   -4.475745   -0.122753
C      -1.225155   -3.663706    0.154651
O       0.449012   -3.469844   -1.136317
H       0.695436    1.813419    0.705510
H       0.313606    1.770355   -1.021341
H      -0.992804    1.808262    0.170561
H       1.891889   -3.589645    0.808668
H       0.514372   -3.760635    1.993091
H       0.167937   -5.524412   -0.393815
H      -1.711208   -3.768896    1.127758
H      -1.927927   -3.603799   -0.676522
