23

C      -0.122631    1.189767    0.763686
C      -0.228565   -0.132182    0.022172
O       0.898511   -0.265092   -0.823280
C       0.921389   -1.464164   -1.547187
C      -0.021071   -1.611851   -2.784925
C       1.193018   -2.150729   -3.554118
C       1.283981   -3.507117   -4.192113
C       1.401859   -2.253284   -5.032423
C       2.145264   -1.609245   -2.478934
H       0.793121    1.221833    1.360888
H      -0.098886    2.024483    0.057306
H      -0.979081    1.323630    1.431328
H      -0.267446   -0.974383    0.734151
H      -1.158189   -0.168501   -0.568874
H       0.817454   -2.325385   -0.869274
H      -0.894253   -2.263244   -2.692143
H      -0.337579   -0.626288   -3.143134
H       2.181475   -4.094631   -4.024127
H       0.376243   -4.096415   -4.279608
H       0.573803   -1.996867   -5.686048
H       2.378067   -1.995702   -5.431594
H       2.541923   -0.620538   -2.730489
H       2.962576   -2.252025   -2.142320
