14

N       0.031896    1.100302    0.678525
C       0.004224   -0.002322    0.064683
O       1.124680   -0.534557   -0.512045
C       0.999525   -1.798683   -1.164161
C       0.125260   -2.704398   -0.330781
O      -1.182814   -2.139653   -0.236239
C      -1.280368   -0.788767   -0.044146
N      -2.397857   -0.206449    0.029830
H       0.977064    1.489787    0.645423
H       0.569457   -1.668428   -2.165913
H       2.013038   -2.194744   -1.263035
H       0.002948   -3.686189   -0.794435
H       0.555777   -2.835352    0.670686
H      -3.150935   -0.892917   -0.058331
