19

O      -0.074560    1.382036   -0.024975
C       0.008192   -0.014749   -0.042970
C       1.045535   -0.519375   -1.021627
N       2.326819    0.118591   -0.714781
C       3.274419   -0.640570    0.095590
C       3.513613   -0.428306   -1.359118
C      -0.245445   -0.753308    1.252605
C      -1.285928   -0.734817    0.144871
H       0.843901    1.687053   -0.027230
H       1.102801   -1.620800   -0.999174
H       0.761838   -0.215614   -2.036668
H       3.830593   -0.072492    0.835376
H       2.983414   -1.640192    0.412802
H       3.383232   -1.287455   -2.014978
H       4.246395    0.297477   -1.700130
H       0.279842   -1.682112    1.449676
H      -0.442049   -0.142232    2.125745
H      -2.161795   -0.113732    0.293492
H      -1.464480   -1.646479   -0.415831
