17

C      -0.003567    1.455939    0.402117
C      -0.082416   -0.036858    0.179247
C      -1.305395   -0.662977   -0.335818
O      -0.172209   -0.459263   -1.181762
N       1.334428    1.977916    0.175788
C       2.167287    2.560600    1.109540
C       3.314010    2.879798    0.433109
N       3.214449    2.510671   -0.888208
C       2.020960    1.974845   -1.007194
H      -0.714000    1.955516   -0.265462
H      -0.286196    1.694580    1.431589
H       0.596580   -0.633368    0.789272
H      -1.524669   -1.699434   -0.086557
H      -2.174024   -0.045466   -0.561253
H       1.859899    2.690684    2.134385
H       4.202426    3.355392    0.820044
H       1.591859    1.558433   -1.906074
