16

C      -0.221150    1.398968    0.068460
C       0.317145   -0.026314    0.059262
N       0.529428   -0.482085   -1.324380
C       0.839641   -1.801017   -1.542927
C       1.732131   -2.452802   -2.295203
O       1.454767   -3.820846   -2.219140
C       0.412666   -3.979708   -1.368378
O      -0.082101   -5.007021   -1.032144
O       0.011084   -2.732030   -0.944936
H       0.490720    2.096728   -0.387660
H      -1.161735    1.461712   -0.485381
H      -0.396403    1.731135    1.095317
H       1.244814   -0.090122    0.649154
H      -0.403408   -0.707991    0.517457
H       1.130054    0.136069   -1.854651
H       2.546168   -2.146246   -2.924430
