21

C      -0.119012    1.555189   -0.001188
C       0.035380    0.038418    0.008833
C       1.164321   -0.609228   -0.844233
C       2.149286   -0.245188    0.350082
C       0.874229   -0.581062    1.164875
C       0.149231   -0.918867    2.479779
O      -0.390832   -2.119207    1.830893
C       0.735445   -2.067100    0.899743
C       0.774103   -2.110546   -0.650173
H       0.824876    2.091267    0.127954
H      -0.560387    1.887535   -0.947125
H      -0.792193    1.877290    0.801287
H      -0.949820   -0.419674   -0.125278
H       1.385573   -0.271902   -1.858274
H       3.022634   -0.882529    0.514183
H       2.457722    0.799240    0.317516
H       0.798575   -1.188505    3.323245
H      -0.643809   -0.243771    2.815072
H       1.549575   -2.668580    1.328048
H      -0.182452   -2.334721   -1.128966
H       1.517705   -2.824229   -1.014689
