14

O      -0.073168    1.439875    0.035244
C       0.019949    0.035550    0.031031
C       0.668058   -0.529160   -1.261359
C      -0.056365   -0.137759   -2.458024
C      -0.657205    0.177527   -3.456238
C      -1.396867    0.573418   -4.629617
O      -1.038454    0.360961   -5.764297
C       0.754465   -0.466224    1.211244
N       1.360338   -0.840521    2.120943
H       0.816411    1.812094    0.061898
H      -1.011449   -0.326145    0.091197
H       1.708324   -0.183746   -1.320751
H       0.713366   -1.623159   -1.191956
H      -2.345401    1.102837   -4.408767
