22

C      -0.122461    1.584217   -0.027232
C       0.021424    0.060569    0.015931
C       0.700749   -0.511852   -1.232180
C       0.860582   -2.037185   -1.186978
C       1.486721   -2.598523   -2.460748
C       1.522140   -4.148110   -2.644982
N       0.696512   -3.959143   -3.840461
C       0.580457   -2.595789   -3.722909
O      -0.020353   -1.768022   -4.356914
H       0.855798    2.072270   -0.101977
H      -0.714420    1.899641   -0.893321
H      -0.616550    1.965468    0.871983
H       0.592813   -0.229620    0.908236
H      -0.970100   -0.397645    0.129609
H       0.128816   -0.240293   -2.127170
H       1.690856   -0.049432   -1.351102
H       1.477678   -2.322255   -0.324144
H      -0.121241   -2.505305   -1.031784
H       2.455049   -2.128238   -2.658975
H       2.507544   -4.581709   -2.842273
H       1.027752   -4.709230   -1.844489
H       0.262139   -4.614245   -4.473386
