17

C      -0.694059   -1.005513   -0.781272
C      -0.302344    0.045311   -0.347674
C       0.176687    1.309391    0.189736
C      -0.424496    1.691993    1.578108
C       0.686254    2.477172    2.219623
C       1.858938    2.316566    1.587010
C       1.718920    1.378104    0.397783
C       3.105674    2.874856    1.956109
C       4.189159    3.328883    2.225440
H      -1.041367   -1.931065   -1.168556
H      -0.092079    2.110552   -0.509591
H      -1.357586    2.255831    1.478188
H      -0.662323    0.794722    2.165576
H       0.550850    3.067977    3.117647
H       2.133305    0.391532    0.637289
H       2.241005    1.737193   -0.493147
H       5.136930    3.735505    2.477685
