14

C      -0.029960    1.532550    0.020720
C      -0.006702    0.029841   -0.027689
C      -0.037253   -0.708680   -1.205338
C      -0.012272   -2.103177   -1.160054
C       0.043234   -2.719682    0.080883
N       0.073779   -2.036031    1.233583
C       0.048809   -0.730153    1.147522
F       0.079913   -0.063994    2.305271
H       0.861788    1.926964    0.519002
H      -0.075610    1.954272   -0.986232
H      -0.893512    1.897620    0.586414
H      -0.080679   -0.189526   -2.158170
H      -0.035465   -2.694207   -2.067967
H       0.064526   -3.802347    0.168140
