17

O      -0.616348    1.223471    0.879437
C      -0.098601    0.121367    0.164776
C       0.531125   -0.975436    1.074673
C      -0.813447   -1.752910    1.018843
C      -1.271247   -0.874063   -0.158125
O      -2.594500   -0.430569    0.058351
C      -2.910281   -0.520061    1.438543
C      -1.814415   -1.359662    2.107543
O      -1.758328   -1.640649    3.275086
H       0.121506    1.686530    1.289607
H       0.506496    0.445234   -0.691842
H       1.342362   -1.519980    0.585242
H       0.863615   -0.649392    2.063721
H      -0.775648   -2.839449    0.916689
H      -1.209343   -1.297775   -1.162095
H      -2.938274    0.469538    1.909417
H      -3.889205   -0.998556    1.561883
