18

C      -0.080653    1.561064   -0.021561
C      -0.001191    0.032098   -0.001414
C       0.617550   -0.472893    1.306926
O      -1.295971   -0.542576   -0.212048
C       0.816190   -0.458233   -1.228367
O       2.119874    0.052254   -1.207798
C       0.850935   -1.973090   -1.313619
O       1.902498   -2.568002   -1.374517
H       0.919246    2.000101    0.011284
H      -0.585006    1.902514   -0.930129
H      -0.645244    1.925235    0.844858
H       0.074838   -0.069569    2.168836
H       0.578844   -1.564865    1.362829
H       1.660572   -0.155598    1.381388
H      -1.874030   -0.240267    0.495824
H       0.269383   -0.112323   -2.123898
H       2.698874   -0.724978   -1.276977
H      -0.123027   -2.491237   -1.326863
