19

O       0.189223    1.381289   -0.213330
C       0.012389    0.011288    0.010314
C       0.297342   -0.611921    1.408345
C      -0.402002    0.142171    2.560981
C      -1.747533   -0.520381    2.182588
C      -2.403693    0.109542    0.928476
O      -2.437828    1.524074    0.784333
C      -1.409787   -0.608710   -0.002562
C      -0.983493   -1.506408    1.222648
H      -0.581754    1.827618    0.161649
H       0.626782   -0.516512   -0.728591
H       1.303763   -0.992163    1.585470
H      -0.054829   -0.210215    3.535787
H      -0.352164    1.235645    2.543971
H      -2.415055   -0.827664    2.989189
H      -3.409572   -0.311344    0.789837
H      -2.965837    1.897418    1.497694
H      -1.796198   -0.967103   -0.956729
H      -1.026660   -2.590903    1.254138
