19

O       0.208425    1.400213    0.414560
C       0.119065   -0.000843    0.202329
C      -1.330588   -0.458375    0.003293
C      -1.481252   -1.975685   -0.153364
C      -2.912058   -2.526086   -0.075660
C      -2.809838   -3.808705   -0.909384
O      -1.795155   -3.543649   -1.895056
C      -1.005974   -2.506374   -1.509321
O      -0.095636   -2.116060   -2.184645
H       0.062138    1.833670   -0.431826
H       0.733730   -0.327863   -0.644263
H       0.527695   -0.465744    1.107824
H      -1.918897   -0.124043    0.865583
H      -1.752127    0.039469   -0.880005
H      -0.860235   -2.480016    0.602614
H      -3.255879   -2.713919    0.943456
H      -3.608772   -1.823027   -0.545203
H      -2.494514   -4.668362   -0.305888
H      -3.727284   -4.071252   -1.439758
