15

C      -0.052818    1.487963   -0.085252
C      -0.015621    0.000416    0.002575
N      -0.016122   -0.790420   -1.050267
N       0.011293   -2.035555   -0.535298
C       0.015417   -3.147275   -1.387537
O       0.039854   -4.286730   -1.019414
N       0.039462   -2.098735    0.815663
C       0.017549   -0.829357    1.174628
N      -0.041246   -0.419313    2.488791
H       0.846044    1.939047    0.352612
H      -0.115816    1.800800   -1.128761
H      -0.916329    1.892568    0.454475
H      -0.006124   -2.799339   -2.432961
H       0.191176   -1.145732    3.151758
H       0.428442    0.451205    2.689213
