15

C      -0.192856    1.565118   -0.053426
C       0.096206    0.065858    0.014586
N       0.782713   -0.420871   -1.169999
N       0.146755   -0.511967   -2.381873
C       1.104127   -0.961906   -3.167622
N       2.314150   -1.169823   -2.568306
C       2.058786   -0.814966   -1.326821
O       2.912484   -0.821786   -0.294868
H       0.735690    2.140620   -0.109537
H      -0.796789    1.793883   -0.934687
H      -0.741918    1.881386    0.838386
H       0.732296   -0.176712    0.869272
H      -0.833975   -0.501464    0.113027
H       0.932110   -1.153647   -4.216321
H       3.753334   -1.152292   -0.635520
