19

C       0.551157    1.621213    0.019994
C      -0.111465    0.234530   -0.083538
C       0.432578   -0.530071   -1.291096
O      -0.194556   -1.786342   -1.446972
C       0.519471   -2.865142   -0.902081
C       0.725483   -2.893249    0.616578
O       1.204479   -3.901928    1.099729
C       0.347509   -1.766595    1.500218
C      -0.000105   -0.502047    1.221751
H       1.626243    1.530589    0.208337
H       0.415305    2.185155   -0.908053
H       0.116704    2.206886    0.835245
H      -1.187074    0.391793   -0.260613
H       0.232897    0.047374   -2.201306
H       1.524621   -0.645920   -1.206010
H      -0.032513   -3.773886   -1.159857
H       1.519200   -2.957052   -1.358130
H       0.398420   -2.064898    2.544711
H      -0.235242    0.123391    2.083647
