19

C       0.020859    1.564274   -0.238067
C       0.082341    0.082547    0.046558
N       1.400643   -0.580240    0.015037
C       0.642827   -0.557147    1.269727
C       1.273104    0.115187    2.472954
C       2.386876   -0.750800    3.138114
N       3.622403    0.036288    3.000703
C       3.276879    1.114715    2.437854
O       1.977334    1.330592    2.118530
H       0.873534    2.084024    0.195305
H       0.014737    1.737217   -1.319779
H      -0.899107    1.994976    0.172968
H      -0.739931   -0.479446   -0.398781
H       1.346529   -1.491516   -0.430017
H       0.147388   -1.481087    1.575387
H       0.487856    0.395160    3.183268
H       2.189335   -0.950511    4.196375
H       2.505069   -1.716679    2.635435
H       3.939376    1.933006    2.179289
