25

C      -0.329308    1.467632   -0.046294
C      -0.120536   -0.047188   -0.109917
C       0.808510   -0.478923   -1.252023
C       0.965416   -1.987901   -1.321865
O      -0.281930   -2.660273   -1.622046
C       0.351802   -3.502856   -2.612356
C      -0.445236   -3.580572   -3.899309
C       1.667747   -2.675937   -2.527324
C       2.057443   -1.816815   -3.724932
H       0.619690    1.995161    0.104012
H      -0.772235    1.845529   -0.974603
H      -0.996749    1.743709    0.776128
H       0.290695   -0.403204    0.844067
H      -1.084517   -0.552753   -0.235957
H       0.412718   -0.105170   -2.203612
H       1.801108   -0.026221   -1.118257
H       1.364740   -2.350634   -0.360910
H       0.488837   -4.518430   -2.210259
H      -0.600965   -2.591863   -4.338369
H       0.062934   -4.216008   -4.632831
H      -1.427869   -4.018386   -3.696195
H       2.528704   -3.279860   -2.227597
H       1.236601   -1.186205   -4.076146
H       2.895795   -1.158758   -3.473511
H       2.374163   -2.445564   -4.563818
