16

C      -0.139360    1.524257   -0.046258
C       0.116654    0.053784    0.034789
C       0.774500   -0.822590   -1.068722
C      -0.295786   -1.826402   -0.812697
C       1.109832   -2.132669   -0.354953
C       1.166998   -1.866294    1.119731
O       1.853326   -2.377076    1.964580
C       0.137084   -0.781278    1.272714
N      -0.954718   -0.955702    0.258169
H       0.788111    2.091499    0.088254
H      -0.563179    1.789585   -1.021033
H      -0.848712    1.830211    0.727582
H       1.248510   -0.496169   -1.983179
H      -0.900942   -2.446747   -1.458738
H       1.709736   -2.893769   -0.832074
H      -0.158559   -0.407394    2.243890
