19

C      -0.491130    1.398933    0.161928
C      -0.076024   -0.045530   -0.003023
C       0.686968   -0.560233   -1.215191
C       1.257337    0.355105   -2.287879
C       2.778988    0.453544   -2.088640
C       3.137599    0.947211   -0.697812
O       4.045637    1.691370   -0.454526
O       2.334691    0.531662    0.326113
C       1.361503   -0.474224    0.128192
H       0.316087    2.091504   -0.085283
H      -1.353910    1.636974   -0.469207
H      -0.772595    1.593992    1.201532
H      -0.788130   -0.758552    0.404416
H       0.431060   -1.560382   -1.550763
H       1.032422   -0.035956   -3.283818
H       0.814620    1.354961   -2.241608
H       3.229224   -0.538147   -2.223513
H       3.261087    1.129670   -2.796899
H       1.610636   -1.372159    0.684603
