21

C      -2.386831    1.058324    1.429969
O      -2.235642   -0.237931    0.903768
C      -0.946144   -0.776733    1.140933
C      -0.905201   -2.174116    0.619447
C      -0.008080   -2.754913   -0.179642
C       1.214448   -2.191957   -0.829060
C      -0.393430   -4.200117   -0.373730
O      -1.593439   -4.391559    0.360285
C      -1.959573   -3.177948    1.009933
H      -3.405907    1.384212    1.208713
H      -2.235190    1.077816    2.521293
H      -1.679500    1.770218    0.974990
H      -0.172138   -0.150842    0.668888
H      -0.740675   -0.771566    2.228189
H       2.121704   -2.688540   -0.461748
H       1.188528   -2.352755   -1.914100
H       1.324477   -1.119942   -0.649677
H      -0.558273   -4.441443   -1.437395
H       0.389711   -4.887789   -0.010575
H      -2.000830   -3.331084    2.101721
H      -2.963646   -2.866126    0.690023
