19

C      -0.015166    1.552357   -0.238039
C       1.529426    1.598908    0.068179
C       2.033495    2.412186    1.285689
C       1.507942    1.597697    2.461214
C       1.069423    0.400172    2.047847
C      -0.120691   -0.400863    2.370626
C      -0.805084   -0.575770    1.221880
C      -0.040500   -0.023816    0.033096
C       1.385577    0.154985    0.579925
H      -0.632042    2.127229    0.455450
H      -0.284951    1.829517   -1.259017
H       2.128953    1.744628   -0.833355
H       3.128294    2.520777    1.266030
H       1.626043    3.431803    1.311372
H       1.312050    2.037245    3.433069
H      -0.472267   -0.646212    3.365162
H      -1.797299   -1.008881    1.152897
H      -0.165762   -0.600098   -0.885596
H       2.145624   -0.613357    0.404132
