16

C      -0.224636    1.646688    0.277279
C      -0.011329    0.162970    0.074562
C      -1.222524   -0.612987   -0.454561
C      -1.727597   -0.070488   -1.715815
N      -2.124203    0.373950   -2.705569
O       1.226860   -0.240811   -0.490136
C       0.966460   -0.630714    0.865540
C       1.832685   -0.011918    1.917506
O       1.969189   -0.495078    3.011671
H       0.696349    2.141939    0.585793
H      -0.562271    2.104091   -0.657364
H      -0.991261    1.825466    1.038071
H      -0.946496   -1.660507   -0.605705
H      -2.030629   -0.586296    0.285695
H       0.764263   -1.689307    1.027434
H       2.352427    0.918454    1.606501
