13

O       0.038236   -0.056212    0.002496
C      -0.018327    1.163024    0.010100
C      -1.245321    1.941229    0.030078
C      -1.189774    3.294577    0.036081
N       0.008791    3.936648    0.023290
N       1.201250    3.332551    0.004190
C       1.208858    2.021615   -0.002523
C       2.478659    1.380780   -0.022838
C       3.537769    0.810854   -0.039937
H      -2.193569    1.419647    0.040027
H      -2.061006    3.939910    0.050895
H       0.062529    4.942383    0.027598
H       4.470890    0.303938   -0.054952
