20

C       0.027804    1.834965    0.540551
C      -0.050433    0.370195    0.105599
N       0.607915   -0.549744    1.025607
C       0.146707   -0.636176    2.404414
C       1.690134   -1.289322    0.636745
O       2.308779   -2.058596    1.339272
C      -1.507952   -0.070976   -0.174058
C      -1.724893   -1.531577   -0.522446
O      -2.414817    0.725805   -0.137916
H       1.069705    2.124295    0.701379
H      -0.406006    2.475317   -0.229692
H      -0.536502    2.010866    1.459253
H       0.474737    0.258367   -0.854189
H      -0.937467   -0.787322    2.442988
H       0.651985   -1.484015    2.866775
H       0.388219    0.271282    2.968106
H       1.945827   -1.108582   -0.426555
H      -1.023925   -1.858681   -1.297906
H      -1.542618   -2.166047    0.350907
H      -2.751138   -1.671981   -0.862995
