23

C       0.120121    1.516722    0.228090
C       0.024312    0.011486   -0.082218
C      -1.394527   -0.506666   -0.113492
C      -1.924838   -0.963979   -1.261722
C      -3.268687   -1.461959   -1.540462
C      -4.275317   -1.796750   -0.718304
C      -4.314162   -1.814715    0.782463
C      -2.971792   -1.727677    1.512419
C      -2.146346   -0.465851    1.199206
H       1.164989    1.841575    0.256902
H      -0.398703    2.103912   -0.536251
H      -0.329148    1.758229    1.196669
H       0.511410   -0.190297   -1.042171
H       0.594051   -0.538932    0.681032
H      -1.280614   -0.931881   -2.139074
H      -3.474658   -1.564423   -2.604794
H      -5.203653   -2.113898   -1.190815
H      -4.975387   -1.005127    1.129081
H      -4.821583   -2.737577    1.098442
H      -3.170777   -1.760433    2.589931
H      -2.369671   -2.613276    1.279684
H      -1.424518   -0.308232    2.009161
H      -2.808178    0.411901    1.221827
