16

C       0.705244    0.718911   -0.560819
C      -0.169219    0.118302    0.509909
O       0.121261    0.153951    1.689901
C      -1.437795   -0.612241    0.046217
N      -1.151704   -2.030812   -0.160701
C      -1.030458   -2.766514    0.883368
N      -1.098995   -2.402873    2.202973
C      -0.845120   -4.190762    0.659264
N      -0.695220   -5.328059    0.519465
H       0.935334   -0.044516   -1.312519
H       0.161133    1.517370   -1.078925
H       1.623764    1.116669   -0.128708
H      -2.212003   -0.455881    0.811401
H      -1.789920   -0.202248   -0.904076
H      -0.826390   -1.450472    2.426507
H      -0.881502   -3.104188    2.892501
