21

C       0.121689    1.585801    0.098679
C       0.012991    0.079255    0.031184
C      -1.395153   -0.552271    0.029813
O      -1.033128   -1.501233    1.056392
C       0.275697   -0.909669    1.211587
C       1.359180   -1.646359    0.399687
C       1.088641   -0.692536   -0.807199
C       0.689454   -1.323076   -2.127516
O       1.854470   -1.928059   -2.673194
H       1.141216    1.900658    0.346255
H      -0.137101    2.043305   -0.864397
H      -0.552483    2.001676    0.855460
H      -2.179673    0.133786    0.379676
H      -1.745929   -1.039799   -0.887727
H       0.480798   -0.617639    2.246013
H       2.367934   -1.562072    0.811351
H       1.133062   -2.701665    0.230007
H       1.948957   -0.044416   -1.001360
H      -0.101501   -2.071834   -1.968592
H       0.284347   -0.552652   -2.805948
H       1.597348   -2.427145   -3.453890
