22

C       1.140781    1.329828   -0.649863
C       0.145254    0.165398   -0.704276
N       0.645156   -1.179749   -0.931394
C       1.876404   -1.394883   -1.054938
O       2.330766   -2.658532   -1.216244
C       3.707266   -2.807920   -1.566883
C       3.927706   -2.750268   -3.056993
C       4.206397   -1.438417   -3.747818
C       5.306708   -2.457275   -3.591654
H       1.863552    1.213219    0.164916
H       1.698118    1.434004   -1.587206
H       0.599822    2.265803   -0.480730
H      -0.429457    0.139985    0.231550
H      -0.597454    0.365561   -1.488246
H       2.674218   -0.641618   -1.020358
H       4.316520   -2.045327   -1.059454
H       3.997792   -3.785066   -1.169381
H       3.333900   -3.470976   -3.611297
H       3.783032   -1.279530   -4.733005
H       4.262341   -0.540672   -3.140467
H       6.094994   -2.244033   -2.876524
H       5.642131   -2.999984   -4.467965
