19

O      -0.374234    0.354893   -0.450554
C       0.498892    0.735456    0.286985
C       1.300656    2.011801    0.125129
C       0.934981    2.774427   -1.167092
O       1.132949    4.184711   -1.073054
C       0.935267    4.713277    0.228138
C       2.021250    4.166847    1.193731
C       1.086416    2.935701    1.350452
C      -0.102396    3.898333    1.051893
H       0.777272    0.145943    1.191884
H       2.357564    1.706066    0.127247
H       1.539508    2.433344   -2.011312
H      -0.111352    2.556570   -1.409981
H       0.810052    5.790950    0.110342
H       3.019233    4.011698    0.775776
H       2.085064    4.750492    2.115934
H       1.098222    2.377661    2.290858
H      -0.406221    4.447218    1.945951
H      -0.988881    3.512474    0.544016
