19

C      -0.075369    1.543381   -0.008057
C       0.085100    0.041078    0.014205
C       1.411039   -0.680496   -0.228887
N       2.633343    0.065905   -0.065411
C       2.638127    0.442666    1.157621
N       3.542145    1.276414    1.761848
O       1.617094    0.044560    1.969559
C       0.741248   -0.726481    1.136581
C       0.127975   -1.889299    1.857613
H       0.831964    2.058441    0.312787
H      -0.306138    1.886806   -1.021731
H      -0.891870    1.860569    0.649552
H      -0.760541   -0.503791   -0.401330
H       1.445062   -1.517973   -0.917422
H       4.407376    1.365404    1.251042
H       3.655143    1.131938    2.754192
H      -0.534357   -1.554758    2.663763
H      -0.466082   -2.487542    1.161370
H       0.899426   -2.532851    2.293027
