17

C      -0.028893    1.376139    0.008648
O      -0.036007   -0.051728    0.003747
C      -1.255455   -0.604712    0.010517
N      -2.414814   -0.000990    0.020727
C      -3.344996   -1.032637    0.023748
C      -4.808964   -0.742055    0.034893
O      -5.509880   -1.976516    0.036319
C      -2.725524   -2.245939    0.015436
N      -1.362741   -1.958284    0.006764
H       1.021970    1.667588    0.001878
H      -0.540818    1.769322   -0.874588
H      -0.527634    1.763158    0.902097
H      -5.056385   -0.135642    0.921918
H      -5.068885   -0.130642   -0.845105
H      -6.451002   -1.783307    0.043499
H      -3.104588   -3.251891    0.014834
H      -0.597236   -2.609519   -0.000873
