12

N       0.095417    1.331981    0.223055
C       0.053517   -0.024239    0.030635
N      -1.020007   -0.768062    0.084969
O      -0.577519   -2.071835   -0.084268
N       0.773023   -2.122701   -0.268268
C       1.172221   -0.889161   -0.189886
O       2.446785   -0.457038   -0.333855
C       3.475514   -1.291362    0.071263
O       4.606114   -0.991475   -0.119581
H       0.864499    1.804328   -0.228139
H      -0.790040    1.805324    0.118640
H       3.099611   -2.198294    0.566337
