20

C       0.051769    1.516857   -0.020334
C       0.027627    0.010638    0.012785
C      -0.007523   -0.714394   -1.178077
N      -0.030783   -2.044878   -1.252498
C      -0.019040   -2.705759   -0.096513
C       0.015394   -2.106583    1.165407
C       0.025159   -2.978225    2.397861
C       0.039479   -0.704268    1.222554
C       0.077179    0.042924    2.532728
H       0.948036    1.921149    0.465124
H       0.036959    1.883284   -1.049980
H      -0.810267    1.950129    0.500791
H      -0.017307   -0.180377   -2.127097
H      -0.038210   -3.792328   -0.166925
H       0.921218   -2.817977    3.008016
H      -0.840846   -2.789329    3.042253
H       0.002549   -4.034788    2.118294
H       0.967404    0.679582    2.598257
H      -0.788344    0.708591    2.632201
H       0.082737   -0.625994    3.393304
