19

C      -0.008925    1.584519   -0.044125
C       0.024150    0.051410    0.032578
C       0.672421   -0.531146   -1.229371
N       0.799204   -1.972075   -1.119996
C       1.391990   -2.534686    0.002050
O       1.853564   -3.665261   -0.020965
C       1.381205   -1.686809    1.196938
C       0.734963   -0.500641    1.258745
N       0.573482    0.200483    2.433404
H       0.999849    2.010933   -0.012731
H      -0.473936    1.902633   -0.982157
H      -0.599376    2.024690    0.765059
H      -1.012453   -0.313024    0.080184
H       0.051704   -0.294964   -2.099336
H       1.650145   -0.041025   -1.381035
H       0.991683   -2.491154   -1.964838
H       1.860881   -2.114430    2.070780
H       1.129696   -0.109686    3.216297
H       0.493727    1.202606    2.370926
