18

C      -0.113287    1.541129   -0.148030
C       0.068576    0.054563    0.099428
O       1.155266   -0.454109    0.252111
C      -1.231305   -0.724171    0.153710
N      -1.200417   -2.238999    0.413092
C      -0.910240   -1.887366    1.885905
C      -2.008842   -0.870722    1.485490
O      -2.547824    0.204297    2.170391
C      -2.684059   -2.077205    0.789507
H       0.850650    2.046999   -0.083766
H      -0.551064    1.712367   -1.138252
H      -0.811685    1.957643    0.586833
H      -1.852154   -0.462523   -0.711015
H      -1.193512   -2.687116    2.574994
H       0.105917   -1.539963    2.056893
H      -2.892026   -0.101920    3.016992
H      -3.338778   -1.885326   -0.064094
H      -3.053917   -2.894370    1.413960
