20

C      -0.920644    1.106663   -0.384376
C       0.095727    0.049016    0.000946
O       0.595807   -0.540016   -1.215318
C       1.518804   -1.513453   -1.063673
O       1.931431   -1.876314    0.010206
C       1.927759   -2.087335   -2.412430
C       3.254440   -2.841339   -2.301765
C       0.794044   -2.985470   -2.947276
H      -0.461711    1.881947   -1.004424
H      -1.750483    0.665867   -0.944105
H      -1.324764    1.579465    0.515708
H       0.935700    0.471965    0.561092
H      -0.345394   -0.737444    0.621687
H       2.034658   -1.239246   -3.098771
H       4.058674   -2.185600   -1.957104
H       3.171267   -3.663377   -1.585993
H       3.538875   -3.252813   -3.274937
H      -0.143324   -2.430041   -3.031207
H       1.055229   -3.373477   -3.936314
H       0.630806   -3.840238   -2.282264
