13

O      -0.030993   -0.092370    0.003128
C       0.000189    1.122511    0.009184
N      -1.172442    1.892550    0.028870
C      -1.188025    3.249737    0.036367
C      -0.006533    3.941895    0.024451
N       1.199701    3.266570    0.004905
C       1.197305    1.972201   -0.002009
C       0.011962    5.364346    0.031841
C       0.015380    6.567903    0.038271
H      -2.036728    1.366701    0.037475
H      -2.154706    3.736597    0.051775
H       2.150075    1.447620   -0.017385
H       0.029208    7.629751    0.043831
