23

C       0.045783    1.563239    0.031597
C       0.073092    0.027828    0.056585
C       0.761162   -0.473455    1.334512
C      -1.345963   -0.561859   -0.081554
C      -2.094620   -0.236963   -1.362662
C      -2.851781   -1.256180   -1.771110
C      -2.738464   -2.435592   -0.833104
C      -1.436868   -2.120662   -0.056891
O      -0.315324   -2.739757   -0.676897
H       1.058427    1.968291    0.129107
H      -0.377298    1.958761   -0.896537
H      -0.549009    1.959124    0.863786
H       0.667460   -0.316458   -0.799398
H       0.178734   -0.204883    2.224730
H       0.884941   -1.558369    1.316037
H       1.753241   -0.022558    1.443187
H      -1.936393   -0.181237    0.769794
H      -2.040054    0.728826   -1.851524
H      -3.504433   -1.246149   -2.637119
H      -3.606005   -2.484007   -0.159400
H      -2.666646   -3.408384   -1.330820
H      -1.449274   -2.517671    0.960588
H      -0.295705   -2.440463   -1.593466
