21

C      -0.413125    1.528631   -0.039426
O      -0.401588    0.256449    0.573198
C      -1.296711   -0.647438   -0.007016
C      -0.936619   -1.318024   -1.361788
C      -1.375122   -2.681679   -0.763075
C      -1.308866   -2.070255    0.662724
C      -0.028437   -2.381479    1.440674
C      -2.521489   -2.276679    1.537037
O      -3.516144   -2.878900    1.218775
H       0.297601    2.155851    0.503371
H      -0.108758    1.478991   -1.095020
H      -1.410625    1.992006    0.011463
H      -2.310495   -0.216051   -0.038404
H      -1.459307   -0.963796   -2.252716
H       0.141452   -1.269770   -1.537515
H      -2.398665   -2.959440   -1.021212
H      -0.719327   -3.534579   -0.948620
H       0.858250   -2.148713    0.846564
H       0.030050   -1.790096    2.359263
H       0.005037   -3.443278    1.706964
H      -2.447603   -1.786707    2.536897
