13

C      -0.558467    0.705480   -0.131447
O       0.783902    0.273879    0.023962
C       1.281792   -0.487514   -1.050500
C       0.853154   -1.925164   -0.994099
N       1.627878   -2.916876   -0.657383
O       0.839140   -4.010747   -0.720470
N      -0.442360   -3.620154   -1.109140
N      -0.428132   -2.375552   -1.274914
H      -0.683124    1.289410   -1.055553
H      -1.266582   -0.131973   -0.149767
H      -0.779549    1.343788    0.726383
H       0.976325   -0.061943   -2.018200
H       2.372017   -0.459881   -0.984711
