22

C      -0.405924    1.385210   -0.161669
C       0.116528   -0.045541    0.026830
C       0.901447   -0.502568   -1.210043
C       0.982046   -0.193054    1.293079
C       0.256519    0.091543    2.592805
C      -0.680651   -0.945608    3.190150
C       0.632508   -0.623696    3.859187
O       1.687482   -1.540923    3.787235
H       0.425290    2.095517   -0.252508
H      -1.009862    1.465874   -1.071726
H      -1.030347    1.706829    0.677194
H      -0.752507   -0.708863    0.142416
H       1.787144    0.125596   -1.365358
H       1.244550   -1.537424   -1.105634
H       0.289408   -0.440537   -2.116169
H       1.390909   -1.207511    1.338082
H       1.849483    0.477869    1.211898
H      -0.043733    1.125758    2.735665
H      -1.607030   -0.627755    3.656537
H      -0.734251   -1.901608    2.677902
H       0.600038   -0.048793    4.785004
H       1.459695   -2.295990    4.339028
