15

O      -0.027583    1.403158    0.125544
C       0.035039    0.001178    0.021340
C      -1.377296   -0.619049   -0.210669
C      -1.212933   -0.199729   -1.708141
C       0.249317   -0.598797   -1.403679
O       0.183478   -2.008217   -1.145553
C      -0.991201   -2.097224   -0.295761
H       0.867143    1.747943    0.041526
H       0.649761   -0.447462    0.813676
H      -2.236285   -0.341275    0.398245
H      -1.739386   -0.779513   -2.469467
H      -1.343289    0.870910   -1.851916
H       1.102224   -0.377038   -2.044914
H      -0.719305   -2.539826    0.669420
H      -1.755065   -2.722402   -0.772854
