20

C       0.268157    1.421677   -0.188311
N       0.359048   -0.032362   -0.159517
C       0.483631   -0.618223    0.938912
O       0.550502   -0.143429    2.231665
C       0.822673   -1.494336    2.759427
C      -0.135412   -1.873607    3.863165
C       0.682470   -2.076303    1.321796
C      -0.474880   -3.015192    1.014845
O       1.916853   -2.612634    0.880220
H       0.989022    1.809743   -0.915602
H      -0.728185    1.714842   -0.538470
H       0.451465    1.898373    0.781655
H       1.864102   -1.547230    3.088062
H      -1.176444   -1.790836    3.540830
H       0.051286   -2.902654    4.186969
H       0.007606   -1.215765    4.725506
H      -1.428235   -2.630531    1.386820
H      -0.566175   -3.133303   -0.069375
H      -0.288947   -3.998480    1.456523
H       1.966138   -2.462365   -0.071241
