21

C      -0.168238    1.579434   -0.077131
C       0.024295    0.096703   -0.021715
C      -0.003119   -0.759433   -1.060433
C       0.194368   -2.234724   -0.684551
C       0.706511   -2.034897    0.731669
C       0.718017   -2.544293    2.205181
C       1.280796   -1.069089    2.241440
C       2.131658   -1.449302    1.013731
C       0.107624   -0.712280    1.256756
H       0.700623    2.107579    0.335264
H      -0.326944    1.932924   -1.100159
H      -1.031050    1.886988    0.527982
H      -0.161665   -0.453534   -2.090978
H      -0.754155   -2.787891   -0.735011
H       0.903736   -2.747426   -1.344209
H      -0.255164   -2.711217    2.675641
H       1.430390   -3.332762    2.463893
H       1.603474   -0.529624    3.134083
H       2.926670   -2.182173    1.179228
H       2.465905   -0.636642    0.367086
H      -0.881387   -0.785277    1.731616
