23

C      -0.108232    1.432126    0.111580
C       0.053200   -0.080245   -0.056225
C       0.853512   -0.453307   -1.313642
O       2.156303    0.075625   -1.183114
C       2.922068    0.141294   -2.392656
C       2.554182    1.381933   -3.208918
C       4.388576    0.136200   -1.977938
C       0.907247   -1.974600   -1.438302
O       0.036800   -2.649423   -1.922193
H       0.868145    1.919854    0.157246
H      -0.664905    1.864071   -0.727322
H      -0.653992    1.664209    1.030839
H       0.566122   -0.501987    0.816985
H      -0.923674   -0.570586   -0.125203
H       0.333958   -0.058190   -2.199075
H       2.718199   -0.758028   -2.996529
H       3.139214    1.418923   -4.133316
H       1.495995    1.386649   -3.486007
H       2.761084    2.287854   -2.630509
H       4.624569   -0.768039   -1.410936
H       5.039112    0.179464   -2.856274
H       4.604168    1.002753   -1.344779
H       1.831875   -2.419173   -0.999845
