16

C      -0.081450    1.389655    0.002434
C       0.020382   -0.096544   -0.018335
O      -1.146112   -0.872945   -0.328782
C      -0.405496   -2.037752    0.138099
C       0.609938   -1.102203    0.899505
C       1.254656   -0.900360   -0.504525
C       0.680342   -2.199557   -0.925589
N       1.105434   -3.103184   -1.701387
O       0.277028   -4.249321   -1.639912
H       0.870725    1.831962    0.309359
H      -0.332447    1.770389   -0.992551
H      -0.857055    1.711852    0.703649
H      -1.016718   -2.850930    0.513778
H       1.050208   -1.100464    1.886186
H       2.204542   -0.449606   -0.754045
H       0.707101   -4.836009   -2.270657
