18

N       0.002592    1.228690    0.097394
C      -0.069734   -0.028809    0.062951
O       0.967357   -0.929039    0.091904
C       0.266930   -2.236253    0.026432
C       1.110054   -3.094495   -0.943882
C       0.388913   -2.262565   -2.098129
C      -0.757405   -2.009881   -1.050781
C      -1.270744   -0.920605   -0.018132
C      -0.836446   -2.013026    1.094682
H       0.978302    1.528387    0.151795
H       2.195757   -3.025694   -0.856906
H       0.798856   -4.141150   -0.953692
H       0.962666   -1.378988   -2.372260
H       0.100010   -2.810515   -2.996219
H      -1.473232   -2.833032   -1.091471
H      -2.251153   -0.452240   -0.041002
H      -1.554481   -2.830114    1.170794
H      -0.550892   -1.636298    2.079531
