24

C      -0.033073    1.392692   -0.030926
O      -0.033685   -0.012168   -0.071764
C      -1.327388   -0.565485    0.058388
C      -1.191216   -2.082937    0.049269
C      -2.515313   -2.857767    0.015197
C      -2.252440   -4.362718   -0.082896
N      -3.293620   -2.590587    1.230099
C      -4.259004   -1.496755    1.187543
C      -4.715004   -2.912309    1.177577
H       1.003189    1.724760   -0.133608
H      -0.627187    1.828276   -0.851022
H      -0.435825    1.776221    0.920547
H      -1.796454   -0.217087    0.991800
H      -1.970268   -0.227924   -0.775078
H      -0.600815   -2.359108   -0.831977
H      -0.619063   -2.393527    0.930461
H      -3.084519   -2.543394   -0.882104
H      -1.697028   -4.708448    0.794538
H      -3.189979   -4.924142   -0.132652
H      -1.668229   -4.595958   -0.977926
H      -4.334876   -0.893700    2.088101
H      -4.363509   -0.940624    0.257018
H      -5.121610   -3.291189    0.240452
H      -5.133434   -3.368687    2.070180
