16

C      -0.085808    1.587013    0.068552
C      -0.022703    0.081417   -0.033616
O      -1.140105   -0.583989    0.478115
C       0.574296   -0.610876   -1.201609
N       1.054518    0.092726   -2.347106
C       1.318842   -0.665691    0.173318
C       2.535302    0.065093    0.315979
N       3.511636    0.686015    0.386200
H       0.828591    2.070063   -0.281716
H      -0.931578    1.963019   -0.513845
H      -0.224294    1.887133    1.113692
H      -1.234621   -0.340838    1.406883
H       0.093513   -1.551637   -1.449380
H       1.529355    0.952334   -2.092487
H       1.731406   -0.474038   -2.848840
H       1.253886   -1.598694    0.721778
