25

C      -0.015111    1.575715    0.194695
C      -0.009771    0.054064    0.025660
C      -1.413283   -0.560996    0.050145
C      -1.417726   -2.082913   -0.127146
C      -2.821681   -2.695011   -0.095850
C      -2.824154   -4.218456   -0.281184
C      -4.213754   -4.804342   -0.235502
C      -4.502852   -6.115443    0.357009
O      -4.820562   -4.911416    1.057425
H       0.999907    1.984993    0.176419
H      -0.584073    2.060995   -0.606315
H      -0.474042    1.866776    1.146282
H       0.483231   -0.208278   -0.919980
H       0.597976   -0.401020    0.819093
H      -1.905357   -0.304087    0.998640
H      -2.024208   -0.101332   -0.739630
H      -0.929223   -2.339622   -1.077905
H      -0.804177   -2.542394    0.660460
H      -3.308865   -2.456050    0.857719
H      -3.438341   -2.233178   -0.879568
H      -2.362251   -4.477741   -1.243969
H      -2.216684   -4.689856    0.500997
H      -4.897672   -4.440989   -1.006291
H      -5.356958   -6.695495    0.009388
H      -3.688252   -6.701612    0.781436
