22

C      -0.078581    1.590873   -0.012913
C      -0.025735    0.080117    0.054349
C       1.234161   -0.674083   -0.290757
C       0.722095   -0.679544    1.133245
C       1.485404    0.014199    2.214625
N       0.950630   -0.073100    3.588079
C       2.264167   -0.678028    3.281100
C       2.322148   -2.175050    3.478923
O       2.202361   -2.505371    4.853226
H       0.884253    2.049581    0.231255
H      -0.343925    1.920891   -1.023268
H      -0.826212    1.997302    0.677364
H      -0.951285   -0.397714   -0.257036
H       1.170181   -1.587283   -0.872252
H       2.123035   -0.083467   -0.494495
H       0.236906   -1.591470    1.463642
H       1.897993    0.977796    1.920195
H       1.066172    0.810561    4.075810
H       3.142130   -0.152078    3.653976
H       1.543677   -2.671242    2.883242
H       3.290879   -2.564720    3.148754
H       1.388229   -2.080834    5.149907
