14

O       0.264908   -0.078639   -0.292671
C       0.098146    1.080396   -0.039962
C       1.245451    2.086795    0.160601
O       2.499737    1.451901    0.262097
C       3.260849    1.658465   -0.921597
C       2.499767    2.734353   -1.671955
C       1.350788    2.991981   -1.041050
C       2.975829    3.331908   -2.865973
N       3.397121    3.800997   -3.837477
H      -0.916410    1.531184    0.060130
H       1.034587    2.646054    1.086966
H       4.276114    1.971241   -0.649650
H       3.332663    0.734208   -1.511915
H       0.589912    3.697699   -1.344215
