15

C       0.025074    1.575111   -0.004704
N       1.281386    0.772117    0.044186
C      -0.006562    0.105550    0.005577
C      -0.527565   -0.949148    0.974899
C      -1.724748   -1.284381    0.024283
O      -1.469316   -2.719230    0.003256
C      -0.148976   -2.104778   -0.013990
C      -0.564781   -0.929073   -0.965563
H      -0.181056    2.143601    0.898314
H      -0.223147    2.091525   -0.929045
H       1.720967    0.762392   -0.873652
H      -0.518065   -0.984340    2.062551
H      -2.754272   -0.930002    0.044537
H       0.732109   -2.744166   -0.036311
H      -0.601737   -0.942950   -2.054622
