21

C      -0.071786    1.735127    0.099943
C       0.023272    0.210129   -0.037643
C       0.749543   -0.358200   -1.315039
C       0.729445   -1.897919   -1.248607
C       1.402943   -2.605842   -2.429276
C      -0.009307    0.176300   -2.523361
O      -0.916728   -0.402098   -3.063623
C       2.166888    0.200767   -1.296816
O       3.108526   -0.356709   -0.794444
H       0.912700    2.210538    0.145563
H      -0.629166    2.192775   -0.722976
H      -0.596549    1.985949    1.026391
H       0.551774   -0.204618    0.827585
H      -0.983202   -0.222254   -0.037290
H       1.220703   -2.193792   -0.316727
H      -0.316950   -2.211118   -1.183473
H       0.912540   -2.359434   -3.374925
H       2.461519   -2.341980   -2.501796
H       1.342094   -3.690443   -2.299634
H       0.307591    1.184423   -2.878205
H       2.289297    1.206536   -1.761670
