20

C      -0.020288    1.526523    0.020462
C       1.303769    0.776646   -0.004999
C       2.244496    0.870669    1.183854
N       2.675080   -0.467495    1.594131
C       2.739864   -0.737206    3.026212
C       1.627950   -1.294734    2.201723
C       0.221159   -0.755731    2.342348
O      -0.491018   -0.750465    1.115678
C      -0.002842    0.020478    0.051401
H      -0.254343    2.041100    0.947662
H      -0.379797    2.030953   -0.870079
H       1.812164    0.707419   -0.962314
H       3.137123    1.442667    0.906923
H       1.768194    1.429968    2.003571
H       3.553902   -1.376176    3.356915
H       2.495724    0.075232    3.710843
H       1.671485   -2.340139    1.900811
H      -0.359739   -1.409925    3.000333
H       0.223543    0.239676    2.807331
H      -0.286627   -0.470993   -0.874432
