16

C       0.009991    1.403283    0.097963
N      -0.055805   -0.030172   -0.118953
C      -1.244140   -0.684487   -0.042052
N      -2.408543   -0.062974   -0.015675
O      -3.327259   -1.165879    0.003305
C      -2.572149   -2.263002    0.003746
O      -3.154005   -3.444662    0.028267
C      -4.589724   -3.467199    0.052380
N      -1.290279   -2.061668   -0.021471
H       1.023925    1.747176   -0.115765
H      -0.680168    1.904960   -0.585120
H      -0.259764    1.694017    1.122586
H       0.736544   -0.588123    0.155125
H      -4.969330   -2.960214    0.943190
H      -4.998502   -2.988148   -0.840991
H      -4.860685   -4.521962    0.073161
