21

C      -0.390170    1.527337   -0.038693
C       1.094575    1.213413    0.009413
C       0.065336    0.104333    0.007936
C      -0.134359   -0.728863    1.263109
C       0.976299   -1.773039    1.470589
C       0.839683   -3.026966    0.591160
O       0.281843   -2.814321   -0.701468
C       0.710182   -1.689914   -1.414292
O      -0.115805   -0.568792   -1.212835
H      -0.860432    1.949318    0.842728
H      -0.794414    1.874136   -0.982486
H       1.660234    1.363562   -0.902989
H       1.639845    1.423926    0.923812
H      -0.148059   -0.048716    2.121553
H      -1.116702   -1.213735    1.220538
H       1.944058   -1.288642    1.296168
H       0.989708   -2.107007    2.514671
H       1.818647   -3.522887    0.502197
H       0.157227   -3.741109    1.063371
H       1.760554   -1.444104   -1.186064
H       0.607403   -1.935034   -2.474365
