13

O       0.044647    1.361271    0.378262
C       0.013155    0.013936   -0.057725
C      -1.404366   -0.459498    0.053047
N      -1.679184   -1.714845    0.321456
O      -3.055827   -1.823681    0.315084
C      -3.580543   -0.605949    0.050465
C      -2.587246    0.307743   -0.127088
C      -4.991282   -0.493043    0.007779
N      -6.142370   -0.382323   -0.033205
H       0.929394    1.706156    0.225990
H       0.336935   -0.076446   -1.106635
H       0.656125   -0.642616    0.544000
H      -2.672937    1.359051   -0.338222
