15

O      -0.125134   -0.000357   -0.108092
C       0.006443    1.196402   -0.000387
C       1.265580    1.932667   -0.009697
C       1.446882    3.301306    0.111664
C       1.122459    4.781356    0.276436
C       2.680263    4.996387    0.197294
N       2.780836    3.521998    0.047429
C       3.413879    2.314221   -0.110580
N       2.521677    1.354073   -0.146610
H      -0.879331    1.864287    0.121593
H       0.557542    5.236371   -0.539480
H       0.671152    5.064343    1.229394
H       3.041038    5.545881   -0.674280
H       3.155323    5.372788    1.105249
H       4.483101    2.195760   -0.190768
