13

N      -0.048937    1.467750    0.106205
C       0.033311    0.012311   -0.000218
C       0.714358   -0.469145   -1.226944
N       1.233668   -0.788788   -2.208547
C       0.704780   -0.550050    1.222487
N       0.252509   -1.445563    2.042608
C       1.284824   -1.531176    2.948094
N       2.300836   -0.749114    2.710968
O       1.915896   -0.083760    1.539329
H       0.883702    1.870454    0.091994
H      -0.549943    1.841768   -0.693801
H      -0.980312   -0.399099    0.000802
H       1.273082   -2.191296    3.802786
