18

C       0.115805    1.421899    0.187067
O       0.014645    0.008022    0.000041
C      -1.252002   -0.473313    0.039313
O      -2.226298    0.226365    0.227162
N      -1.285627   -1.827336   -0.150982
C      -0.116789   -2.665832   -0.356647
C      -2.585664   -2.486006   -0.115952
C      -2.946218   -3.115716   -1.387532
C      -3.234382   -3.645982   -2.426555
H       1.181702    1.647618    0.140277
H      -0.421851    1.958092   -0.598891
H      -0.294561    1.716709    1.155937
H       0.029093   -3.346381    0.493161
H      -0.246895   -3.269926   -1.261039
H       0.767451   -2.044290   -0.466519
H      -2.588838   -3.247296    0.677674
H      -3.320056   -1.723299    0.152530
H      -3.501930   -4.104123   -3.346564
