14

C      -0.028057    1.482466   -0.046074
C      -0.009655   -0.011681    0.032379
N      -0.031152   -0.741720   -1.075710
N      -0.005280   -2.027959   -0.641147
C       0.031539   -2.140831    0.694206
C       0.030473   -0.844212    1.192449
C       0.063768   -0.465663    2.598023
O       0.096840   -1.249647    3.523661
H       0.863561    1.919025    0.416111
H      -0.062414    1.792680   -1.092155
H      -0.899754    1.900103    0.468559
H      -0.015364   -2.767766   -1.323479
H       0.055614   -3.090219    1.204673
H       0.056060    0.631225    2.783588
