17

C      -0.040201    1.439605   -0.008388
C       1.425490    1.859144    0.013370
C       2.414828    0.957403    0.046809
C       2.113367   -0.526996    0.064459
C       0.957208   -0.867901   -0.912682
C       0.204584   -1.824217    0.048002
O      -1.056379   -1.041983    0.011186
C       0.003650   -0.054058    0.016091
C       0.920022   -0.837530    1.006380
H      -0.578517    1.848155    0.856768
H      -0.544366    1.820272   -0.906220
H       1.638927    2.923608    0.000658
H       3.450705    1.282503    0.061735
H       2.993498   -1.171313    0.091710
H       0.948666   -0.867420   -2.002819
H       0.120096   -2.909774    0.063543
H       0.869261   -0.802569    2.094806
