16

O       0.055119   -0.099819   -0.179547
C       0.111712    1.022755    0.253324
C       1.295919    1.916253    0.103670
C       2.231344    1.735061   -1.056636
N       2.660015    1.302891    0.260149
C       3.488686    2.259106    1.034114
C       2.645196    3.485878    1.345122
O       2.208896    4.213057    0.188549
C       1.307717    3.266951    0.776319
H      -0.753890    1.478607    0.786496
H       2.016561    0.918251   -1.739967
H       2.645844    2.642011   -1.484814
H       3.781114    1.770701    1.969984
H       4.399844    2.507428    0.480620
H       2.840164    4.085604    2.231626
H       0.392672    3.675932    1.196098
