17

C      -0.027774    1.475536    0.031371
C       0.032112   -0.026646    0.013107
C       0.614787   -0.959942   -1.094758
C       0.068270   -1.919322   -0.002768
C       0.713845   -0.976938    1.050227
C      -1.202895   -1.009127    0.035853
C      -2.058514   -1.026730    1.210756
N      -2.750084   -1.028461    2.138110
H       0.980712    1.902191    0.017096
H      -0.569286    1.860607   -0.839230
H      -0.534771    1.835013    0.932767
H       0.102483   -0.960832   -2.061187
H       1.700187   -0.938399   -1.216323
H       0.066553   -3.008370   -0.011521
H       1.806123   -0.954874    1.070556
H       0.294369   -0.993917    2.058335
H      -1.812609   -1.012718   -0.872266
