19

C       0.252663    1.367586    0.237102
C      -0.052466   -0.108701   -0.025092
C      -0.038325   -0.919867    1.281504
N      -1.305744   -0.185128   -0.793916
C      -1.704232   -1.487617   -1.258762
C      -2.686882   -2.225887   -0.358072
O      -3.207217   -1.751462    0.619873
C      -3.028372   -3.592827   -0.808473
N      -3.254882   -4.663452   -1.182795
H       1.220741    1.483372    0.732789
H       0.265034    1.930846   -0.699238
H      -0.508745    1.809690    0.891154
H       0.730662   -0.506928   -0.685420
H      -0.208385   -1.986724    1.103875
H       0.930568   -0.824510    1.782931
H      -0.815995   -0.566909    1.966665
H      -2.063964    0.230823   -0.260562
H      -2.207527   -1.427724   -2.240277
H      -0.831377   -2.130205   -1.428316
