15

O       0.004768    0.102886    0.513284
C      -0.039269    1.201854    0.040478
O      -1.205336    1.716751   -0.395356
C      -1.252883    2.957176   -1.128323
C      -0.101897    3.872897   -0.772127
O       1.114419    3.168168   -0.964177
C       1.225671    2.090422   -0.046141
C       1.582209    2.545060    1.302656
C       1.860885    2.945833    2.400195
H      -1.226407    2.714406   -2.196406
H      -2.220326    3.408434   -0.891678
H      -0.082296    4.735974   -1.442461
H      -0.182793    4.232785    0.263408
H       2.016505    1.442000   -0.434532
H       2.118383    3.286257    3.373164
