22

C      -0.102182    1.551011    0.246636
C      -0.041098    0.022457    0.072996
C       0.558305   -0.620883    1.338975
C      -1.476660   -0.503861   -0.137241
C       0.779916   -0.429104   -1.142681
C       1.080985    0.412827   -2.344635
C       2.226488   -0.040708   -1.448177
C       2.967074    0.911307   -0.670478
N       3.592672    1.662242   -0.049655
H       0.885641    1.999043    0.375835
H      -0.593283    2.032941   -0.604906
H      -0.690185    1.791747    1.138225
H      -0.064207   -0.404005    2.213427
H       0.621665   -1.709975    1.236791
H       1.564026   -0.240132    1.539279
H      -1.917742   -0.096501   -1.053183
H      -1.494432   -1.596796   -0.211047
H      -2.118161   -0.215991    0.701978
H       0.611015   -1.480459   -1.366104
H       1.026076   -0.028223   -3.333374
H       0.833100    1.466463   -2.306260
H       2.853956   -0.839948   -1.829875
