13

N       0.040618    1.352556    0.049951
C       0.022563   -0.013020    0.066951
O       1.029948   -0.697362    0.128816
C      -1.305640   -0.654852    0.040196
C      -2.579439   -0.222112    0.090755
O      -3.438329   -1.281063    0.050662
C      -2.684162   -2.463837   -0.022590
O      -3.164262   -3.558275   -0.066460
N      -1.380092   -2.043203   -0.031704
H       0.945058    1.786779   -0.044965
H      -0.760030    1.880339   -0.253858
H      -3.018293    0.757747    0.173024
H      -0.573740   -2.645411   -0.048705
