21

C      -0.347559    1.484653   -0.028590
C      -0.014329   -0.002476   -0.068808
C       1.339288   -0.317686   -0.828028
C       1.948385   -0.502345    0.540660
C       2.933318   -0.168579    1.369452
C       2.414734   -0.246753    2.802545
C       0.855841   -0.127976    2.656389
O       0.406983    1.197175    2.883099
C       0.623761   -0.679445    1.218971
H       0.536076    2.088000    0.211934
H      -0.696354    1.814069   -1.013569
H      -1.122069    1.708844    0.707955
H      -0.874910   -0.557904   -0.451786
H       1.275761   -1.246712   -1.404031
H       1.749560    0.466511   -1.471112
H       3.933572    0.161727    1.113720
H       2.692039   -1.192145    3.289278
H       2.790040    0.557264    3.445989
H       0.335498   -0.724847    3.410432
H       0.904773    1.779671    2.299818
H       0.290996   -1.723814    1.269832
