14

C      -0.042327    1.407509    0.009169
N      -0.019406   -0.033080    0.000220
C      -1.197638   -0.865009    0.003639
C      -0.624518   -2.258038   -0.008055
C       0.707159   -2.201942   -0.016611
C       1.147369   -0.774792   -0.012222
O       2.276895   -0.326394   -0.016601
H       0.995832    1.746066    0.002982
H      -0.555288    1.809591   -0.873921
H      -0.541137    1.798912    0.905090
H      -1.823771   -0.689562    0.892596
H      -1.835886   -0.679632   -0.874613
H      -1.250281   -3.140613   -0.008610
H       1.416172   -3.017010   -0.025696
