17

C      -0.485706    1.365969    0.032621
C      -0.050136   -0.107502   -0.018665
C       0.821719   -0.493248   -1.262042
O       0.751570    0.395899   -2.357044
C       2.238375   -0.629555   -0.720789
O       2.637500    0.556394   -0.027526
C       2.241091   -0.593569    0.750854
C       0.805942   -0.477353    1.203267
O       0.405446   -0.695991    2.317373
H       0.377662    2.034809    0.085873
H      -1.069515    1.618380   -0.855723
H      -1.101517    1.538137    0.919014
H      -0.947393   -0.732175    0.016974
H       0.491717   -1.460975   -1.653762
H       1.174776    1.218899   -2.085777
H       3.016952   -1.123972   -1.295366
H       3.003107   -1.038465    1.382464
