21

C      -0.017347    1.299303   -0.293008
O      -0.067333   -0.016656    0.224589
C      -1.338039   -0.586712    0.177966
C      -2.357196   -0.152674    1.242029
C      -3.042955   -1.446194    1.627094
C      -2.536640   -2.494245    0.970480
C      -1.459453   -2.087779    0.025667
C      -1.833831   -1.146883   -1.132551
C      -3.233778   -0.978998   -1.675865
H       1.023612    1.626424   -0.235968
H      -0.347725    1.335415   -1.341118
H      -0.637630    1.995260    0.290413
H      -1.831495    0.300402    2.093124
H      -3.069537    0.597120    0.874521
H      -3.855941   -1.483154    2.343503
H      -2.865208   -3.521455    1.081819
H      -0.579838   -2.708218   -0.105768
H      -1.054649   -1.130391   -1.891903
H      -3.987784   -1.097519   -0.894021
H      -3.365271    0.011712   -2.125752
H      -3.441322   -1.724488   -2.451548
