17

C      -0.028024    1.448005    0.051570
C       1.412310    1.979589    0.016337
O       2.159135    1.542359    1.151199
C       1.992557    0.205829    1.381819
C       2.781351   -0.609810    2.158890
N       2.219811   -1.866459    2.100596
C       1.089448   -1.857748    1.320516
C       0.924201   -0.572031    0.849989
N      -0.098865   -0.015928    0.041628
H      -0.509700    1.816273    0.966212
H      -0.590037    1.841691   -0.800454
H       1.910516    1.644521   -0.906847
H       1.430268    3.072620    0.045748
H       3.669525   -0.403705    2.730852
H       2.578794   -2.672663    2.577348
H       0.507316   -2.749395    1.157134
H      -0.068915   -0.374326   -0.906074
