17

O       0.033371   -0.051506   -0.233536
C       0.052971    1.157372   -0.185063
N       1.178911    1.911245    0.034854
C       2.460608    1.392122    0.272458
N       3.380404    2.233371    0.531195
C       2.775407    3.569678    0.488443
C       3.013738    4.341244   -0.840913
C       1.522534    4.110453   -1.241308
C       1.268153    3.369890    0.101906
H      -0.846041    1.789114   -0.315336
H       2.588104    0.317883    0.224682
H       3.007573    4.116690    1.404876
H       3.286992    5.390213   -0.707860
H       3.753268    3.865391   -1.487134
H       0.936568    5.025552   -1.353454
H       1.366568    3.488813   -2.125814
H       0.490953    3.785518    0.745717
