18

C       0.038926    1.454354    0.154403
N      -0.027655    0.001525    0.160323
C      -1.258555   -0.608447    0.122435
O      -2.305546    0.015955    0.197897
N      -1.232833   -1.998984    0.047407
C      -0.016197   -2.790561    0.015317
C      -2.491812   -2.663778   -0.213965
C      -2.566203   -3.229342   -1.573398
N      -2.591772   -3.684134   -2.635339
H      -0.134754    1.882163   -0.841122
H      -0.727633    1.841708    0.825461
H       1.023256    1.768174    0.510252
H       0.757616   -0.485452   -0.237477
H       0.716765   -2.382795    0.715979
H      -0.244732   -3.809910    0.338682
H       0.432866   -2.853904   -0.986229
H      -2.660559   -3.475348    0.505066
H      -3.280097   -1.918372   -0.083094
