23

C       0.051325    1.380694   -0.143486
O      -0.007633    0.005239    0.153357
C      -1.303671   -0.564307    0.075468
C      -1.805211   -0.743550   -1.364041
C      -3.111028   -1.545236   -1.363849
O      -2.965837   -2.794442   -0.716277
C      -2.582213   -2.666669    0.649318
C      -2.535413   -4.070734    1.233502
C      -1.244800   -1.923743    0.770043
H       1.074766    1.708646    0.055717
H      -0.183793    1.600320   -1.195159
H      -0.635706    1.963618    0.490791
H      -2.015774    0.084898    0.617888
H      -1.971420    0.222424   -1.853546
H      -1.042153   -1.283513   -1.936501
H      -3.910106   -0.957298   -0.877842
H      -3.435921   -1.763789   -2.385165
H      -3.357209   -2.080930    1.178099
H      -1.779865   -4.671884    0.718322
H      -2.286196   -4.036537    2.298210
H      -3.504080   -4.563738    1.116216
H      -0.455279   -2.523460    0.301388
H      -0.977404   -1.790110    1.823558
