21

C       0.135135    1.431314   -0.061972
C       0.134199   -0.085178    0.152539
O       0.614422   -0.419299    1.454335
C      -1.273586   -0.659875    0.086663
C      -2.114955   -0.664323   -1.229819
C      -1.241825   -1.839396   -1.756297
C      -1.551274   -2.151730   -0.254106
O      -1.098112   -3.203021    0.515820
C      -3.025886   -1.727541   -0.552134
H       1.146728    1.837936    0.053766
H      -0.213511    1.690216   -1.067108
H      -0.513732    1.921746    0.670780
H       0.778762   -0.547940   -0.608678
H       1.512341   -0.082160    1.532985
H      -1.825320   -0.303318    0.964241
H      -2.449224    0.202231   -1.795634
H      -1.717086   -2.494291   -2.493047
H      -0.208280   -1.628032   -2.032342
H      -1.417317   -4.024516    0.126696
H      -3.622045   -1.395309    0.301516
H      -3.597202   -2.372959   -1.225852
