18

C      -0.026857    1.444961    0.216222
C       1.266516    0.772055   -0.128128
C       1.860867    0.127343    1.130796
C       0.573876   -0.744158    1.256596
C       0.730321   -2.286262    1.188506
N       0.053332   -2.810350    2.384366
C      -0.382677   -1.790486    2.996329
O      -0.169447   -0.553703    2.493060
C      -0.020570   -0.049401    0.037738
H      -0.179936    1.874325    1.202481
H      -0.502002    1.992950   -0.590981
H       1.809796    0.984941   -1.039354
H       2.748743   -0.482988    0.947142
H       2.056233    0.803424    1.968584
H       0.269730   -2.705323    0.286660
H       1.781275   -2.596436    1.189876
H      -0.936449   -1.807442    3.928987
H      -0.627721   -0.543918   -0.712000
