18

C      -0.084757    1.410660   -0.156587
C      -0.018896   -0.043331   -0.095363
C       0.072503   -1.243756   -0.035622
C       0.097976   -2.701900    0.021560
C      -1.327029   -3.281506    0.130167
O      -2.143148   -2.844639   -0.948569
C      -1.346004   -4.805171    0.060374
O      -2.663778   -5.303847    0.139685
H       0.813825    1.863770    0.276228
H      -0.168773    1.764304   -1.190003
H      -0.947803    1.795554    0.397610
H       0.575180   -3.102859   -0.881940
H       0.694371   -3.041025    0.878253
H      -1.766549   -2.967493    1.089533
H      -2.120362   -1.880314   -0.956269
H      -0.848193   -5.121482   -0.871839
H      -0.787432   -5.227377    0.902455
H      -3.176022   -4.783469   -0.491191
