15

C      -0.006488    1.454544    0.125808
C      -0.007860   -0.030779   -0.015688
C      -0.079957   -0.829641   -1.152890
C      -0.045646   -2.180535   -0.749863
C       0.046781   -2.163015    0.626835
N       0.069087   -0.863706    1.060281
N       0.115661   -3.218024    1.568210
O       0.193786   -2.897329    2.760893
O       0.093649   -4.370244    1.145690
H       0.909744    1.816313    0.606572
H      -0.075225    1.921705   -0.858441
H      -0.854079    1.806675    0.725097
H      -0.149738   -0.460804   -2.164739
H      -0.081883   -3.066147   -1.361914
H       0.132271   -0.624918    2.037360
