20

C       0.251580    1.549783    0.026853
C      -0.011036    0.075542    0.074114
C      -1.386283   -0.609821   -0.021706
C      -0.869073   -1.700385    0.965148
C      -1.625337   -2.059002    2.259541
C      -1.534763   -3.507981    1.743386
O      -0.884320   -3.077117    0.529169
C       0.484563   -0.993664    1.016469
N       1.035816   -0.855856   -0.330742
H       1.294155    1.759197    0.279673
H       0.063374    1.947520   -0.977496
H      -0.396311    2.089260    0.726064
H      -2.207765   -0.027097    0.406224
H      -1.677206   -0.963201   -1.016586
H      -1.088163   -1.848009    3.186547
H      -2.635625   -1.651661    2.328733
H      -0.898173   -4.179171    2.332222
H      -2.487543   -4.010090    1.539687
H       1.163046   -0.946584    1.862729
H       0.707136   -1.595902   -0.949835
