19

C       0.541241    1.370807    0.324728
C      -0.257820    0.153423   -0.154987
C       0.392750   -0.524041   -1.351924
O       1.600116   -1.269902   -1.075975
C       0.453929   -1.995607   -1.538710
C      -0.105093   -3.031414   -0.593403
O       0.729201   -4.178061   -0.567367
C       0.450665    0.290480   -2.548972
C       0.468927    0.979293   -3.534013
H       1.552112    1.074180    0.619471
H       0.625206    2.122908   -0.464805
H       0.055141    1.834503    1.187625
H      -0.351965   -0.568615    0.659146
H      -1.272330    0.454448   -0.441215
H       0.552066   -2.350671   -2.565694
H      -0.240950   -2.613754    0.412158
H      -1.081781   -3.371349   -0.954396
H       1.602093   -3.884060   -0.283002
H       0.494833    1.581523   -4.408621
