15

C      -0.111518    1.376917    0.092225
N       0.231952   -0.029793   -0.045500
C       0.732261   -0.710209    1.029126
N       0.773485   -2.042476    1.109509
N       1.386006   -2.203139    2.287392
C       1.680218   -3.502966    2.849170
N       1.696006   -1.076753    2.895173
N       1.285357   -0.103607    2.112709
H       0.752454    1.924317    0.473697
H      -0.367340    1.772203   -0.893289
H      -0.952973    1.554622    0.776991
H      -0.378944   -0.583887   -0.625180
H       2.340341   -4.057672    2.178186
H       2.169847   -3.338507    3.808176
H       0.754283   -4.065788    2.989189
