14

C      -0.060811    1.489237   -0.042760
C      -0.012535   -0.002555    0.023632
N      -0.053695   -0.745602   -1.080237
N       0.004332   -2.033582   -0.639042
C       0.092662   -2.113631    0.704413
O       0.152117   -3.300505    1.340701
C       0.088012   -0.818623    1.177419
O       0.090689   -0.492812    2.517204
H       0.870724    1.944759    0.315276
H      -0.216973    1.806327   -1.075863
H      -0.873433    1.888263    0.574030
H      -0.030568   -2.793005   -1.296095
H       0.173165   -3.107326    2.286594
H       0.873218    0.034421    2.710675
