17

O       0.066091    1.303612    0.397665
C      -0.017873    0.022639   -0.197969
C      -1.420111   -0.533721   -0.110001
C      -1.677958   -1.954951    0.209460
N      -1.863799   -0.913707    1.252712
C      -3.255254   -0.517611    1.360113
O      -3.946340   -0.698843    2.327788
N      -3.619467    0.092553    0.185976
C      -2.544512    0.268001   -0.768279
H      -0.184292    1.192443    1.322883
H       0.274882    0.150287   -1.246313
H       0.683642   -0.687919    0.262054
H      -2.572439   -2.425378   -0.190862
H      -0.846422   -2.628784    0.392584
H      -4.528854    0.514285    0.096837
H      -2.235420    1.316538   -0.857349
H      -2.808222   -0.107187   -1.764400
