21

C      -0.019786    1.296238   -0.393583
C      -0.025174   -0.126320   -0.081949
C      -0.019714   -1.302388    0.176789
C      -0.044720   -2.729668    0.487857
C      -1.402010   -3.369302    0.211131
C      -1.888741   -3.832459   -1.132635
C      -0.765637   -4.469580   -1.961469
C      -0.514335   -5.496070   -0.809577
C      -1.638583   -4.840502    0.004490
H       0.759194    1.542814   -1.123878
H      -0.979242    1.616142   -0.815532
H       0.164334    1.901452    0.501280
H       0.742734   -3.239429   -0.078468
H       0.208419   -2.879564    1.546373
H      -2.198506   -2.904525    0.788429
H      -2.831405   -3.483079   -1.537297
H      -1.136591   -4.956167   -2.865925
H       0.064605   -3.813578   -2.243028
H      -0.760985   -6.515791   -1.112888
H       0.481123   -5.508916   -0.353098
H      -2.359185   -5.382062    0.606754
