14

N       0.141150    1.380322    0.112803
C      -0.004275   -0.009845    0.004377
C      -1.109649   -0.820987   -0.026096
C      -0.603640   -2.167841   -0.007108
C       0.777935   -2.087001    0.029918
N       1.215685   -3.358176   -0.034806
N       0.124375   -4.206468   -0.069234
N      -0.957505   -3.483091   -0.068429
N       1.179328   -0.777662   -0.007408
H       0.546846    1.800772   -0.718322
H      -0.748615    1.825723    0.296919
H      -2.133520   -0.488625   -0.085534
H       2.136764   -3.756590    0.023290
H       2.049953   -0.406580    0.334689
