15

C      -0.018586    1.343432   -0.142793
O       0.016066   -0.065219   -0.115224
C      -1.239892   -0.626871    0.202242
C      -1.134027   -2.111755    0.176219
N      -1.307452   -2.942194    1.156047
C      -1.109420   -4.194654    0.589541
C      -0.820292   -4.042845   -0.723633
O      -0.837776   -2.708263   -1.006287
H       0.985597    1.685925   -0.401782
H      -0.729699    1.719310   -0.895530
H      -0.298521    1.764917    0.835332
H      -1.574761   -0.336793    1.208170
H      -2.002831   -0.290563   -0.520693
H      -1.187334   -5.100885    1.168437
H      -0.591679   -4.706184   -1.539759
