23

C      -0.007241    1.409475   -0.152181
O      -0.017156    0.036104    0.154678
C      -1.285127   -0.593749    0.067830
C      -1.743072   -0.796196   -1.385651
O      -0.887888   -1.656305   -2.108294
C      -0.801463   -2.946045   -1.524323
C      -0.285137   -2.886667   -0.085878
C      -1.169582   -1.960450    0.766783
C      -0.679584   -1.839942    2.211275
H       0.992776    1.783270    0.082155
H      -0.209743    1.610606   -1.213855
H      -0.742884    1.965512    0.450847
H      -2.040287    0.025077    0.585165
H      -2.776359   -1.188265   -1.370853
H      -1.758901    0.150472   -1.933314
H      -1.793139   -3.433549   -1.546463
H      -0.130345   -3.524263   -2.166124
H      -0.265817   -3.896401    0.341347
H       0.742109   -2.506754   -0.087657
H      -2.185711   -2.381600    0.777734
H       0.317964   -1.395411    2.244697
H      -1.349147   -1.207147    2.804530
H      -0.636544   -2.823954    2.689783
