19

C       0.042493    1.554047    0.114025
C       0.202828    0.032981    0.156738
C       0.734361   -0.558473   -1.165226
C       2.197935   -0.190967   -1.362704
O       2.597987    0.620605   -2.153902
C       0.541222   -2.071905   -1.209337
O      -0.247712   -2.700912   -0.553251
O       1.373648   -2.623204   -2.113416
C       1.263551   -4.045331   -2.276328
H       0.986590    2.058263   -0.114719
H      -0.681915    1.851861   -0.651552
H      -0.314894    1.929774    1.077043
H       0.879714   -0.254767    0.971769
H      -0.751009   -0.455217    0.374218
H       0.182254   -0.135468   -2.013889
H       2.893111   -0.707506   -0.661770
H       0.260526   -4.313727   -2.616417
H       2.007351   -4.314978   -3.025430
H       1.464574   -4.555705   -1.331467
