19

O      -0.110341    1.394650    0.039586
C      -0.048153   -0.019173    0.059070
C       0.373443   -0.658939    1.407318
C      -0.633566    0.000479    2.392585
C      -1.644424   -0.851983    1.616962
O      -2.959034   -1.085126    1.993557
C      -0.548341   -1.952982    1.363032
C      -1.104927   -2.151935   -0.056464
C      -1.453185   -0.643427    0.055196
H       0.779706    1.735344    0.177151
H       0.556842   -0.383366   -0.782994
H       1.435543   -0.725005    1.641585
H      -0.506049   -0.379407    3.412494
H      -0.720761    1.088190    2.391320
H      -2.964661   -1.367016    2.914500
H      -0.322974   -2.759226    2.061577
H      -0.446744   -2.469875   -0.870868
H      -1.996897   -2.781838   -0.030847
H      -2.218106   -0.164217   -0.553177
