20

C       0.031130    1.562328   -0.093736
C       0.021171    0.044231   -0.068097
C      -1.154624   -0.531036    0.699341
C       0.574557   -0.768716   -1.191031
C       1.436056   -0.120085   -2.250241
C       2.637720    0.456563   -1.481981
O       3.510384    1.145450   -1.937844
C       2.521866   -0.015619   -0.022881
N       1.262523   -0.738589    0.140241
H       0.820284    2.000819   -0.707471
H      -0.924081    1.930729   -0.482254
H       0.143109    1.958242    0.922371
H      -2.103474   -0.245451    0.231411
H      -1.094961   -1.621178    0.734509
H      -1.161423   -0.160610    1.730551
H       0.091475   -1.710426   -1.438705
H       1.804800   -0.855793   -2.974008
H       0.947901    0.673126   -2.823983
H       3.357335   -0.693022    0.194061
H       2.616671    0.835638    0.658870
