12

O      -0.069894   -0.037470    0.003424
C       0.025881    1.150411    0.009525
O      -1.217299    1.880167    0.029823
C      -1.222169    3.206409    0.036313
C      -0.087440    3.936935    0.024251
C       1.138184    3.191169    0.003644
N       1.189398    1.882534   -0.003588
C       2.373682    3.910680   -0.010417
C       3.387354    4.558252   -0.021668
H      -2.225215    3.621310    0.052068
H      -0.100605    5.016253    0.029605
H       4.296534    5.108904   -0.031804
