14

C       0.292851    1.436757    0.294219
C      -0.228624    0.078236   -0.201085
C       0.592893   -0.489213   -1.319411
N       0.072882   -0.627441   -2.517149
O       1.083233   -1.160469   -3.316909
C       2.181533   -1.325540   -2.568164
C       1.953797   -0.924175   -1.294107
H       1.320843    1.360505    0.662509
H       0.279837    2.176063   -0.511895
H      -0.329663    1.811630    1.111831
H      -0.239049   -0.635546    0.631537
H      -1.259478    0.175195   -0.553252
H       3.039587   -1.738048   -3.076517
H       2.636928   -0.935491   -0.461185
