15

O      -0.263345    1.313563    0.047385
C       0.022450   -0.070951    0.000670
C       0.695036   -0.442152   -1.262772
N       1.257040   -0.714002   -2.235220
C       0.842608   -0.545908    1.203839
C       0.068900   -0.487900    2.536855
O      -0.061236   -1.924583    2.566625
C       0.831635   -2.071754    1.444132
H       0.565233    1.799688   -0.038649
H      -0.954068   -0.568966    0.020412
H       1.826747   -0.070708    1.193213
H       0.652367   -0.110709    3.386019
H      -0.900072    0.022521    2.511665
H       0.402911   -2.691726    0.647559
H       1.801105   -2.492180    1.738082
