17

C       0.044478   -1.220917   -0.064039
C       0.056454   -0.020943   -0.031000
C       0.029703    1.443850    0.003173
C       1.379397    2.015141   -0.026562
C       2.474351    2.508362   -0.039913
C      -0.868628    1.997312   -1.134323
C      -0.882932    3.524394   -1.356801
C      -0.338178    3.173048   -2.755900
O      -0.321091    1.762234   -2.439678
H       0.046300   -2.282282   -0.097871
H      -0.453488    1.755564    0.942729
H       3.450917    2.925571   -0.052740
H      -1.856857    1.532485   -1.024787
H      -1.868766    3.989784   -1.329802
H      -0.192951    4.082709   -0.723048
H      -1.010978    3.391308   -3.593634
H       0.664503    3.546748   -2.988754
