18

C       0.401403    1.186435    0.311632
N      -0.330884    0.077300   -0.307450
C       0.383439   -0.735569   -1.173240
C       0.737341   -2.046223   -1.122800
C       0.392623   -3.005562   -0.028921
C       1.497393   -2.328517   -2.317323
C       1.546125   -1.158123   -3.000509
O       2.120287   -0.847071   -4.175353
O       0.895527   -0.168476   -2.360435
H       1.248652    0.782611    0.873046
H       0.787778    1.921509   -0.409633
H      -0.259455    1.703418    1.013939
H      -1.206237    0.399514   -0.706185
H      -0.183782   -3.856555   -0.410178
H       1.293097   -3.415647    0.443040
H      -0.201281   -2.504593    0.738950
H       1.935563   -3.265749   -2.617830
H       1.954335    0.086926   -4.348566
