17

C       0.212060    1.287093    0.321013
O      -0.045397    0.083858   -0.404893
C      -1.235443   -0.500832   -0.131967
C      -1.947738   -0.781434    1.008449
O      -1.604560   -0.464628    2.285443
N      -3.103550   -1.436603    0.707363
C      -3.100045   -1.571779   -0.605266
N      -1.994409   -1.015922   -1.171259
C      -1.633708   -0.984212   -2.572304
H       1.194241    1.635445   -0.003516
H      -0.544696    2.048508    0.094981
H       0.221314    1.102005    1.399457
H      -2.337391   -0.762792    2.837550
H      -3.857589   -2.065857   -1.194073
H      -2.463738   -1.387880   -3.154807
H      -1.436576    0.041428   -2.895636
H      -0.738754   -1.584013   -2.763367
