16

C      -0.025382    1.510979    0.074624
C      -0.005202    0.020794   -0.018759
C       0.018337   -0.831236   -1.128709
C      -0.016458   -0.525397   -2.527790
O       0.011670   -1.387951   -3.403767
C       0.078004   -2.183812   -0.631746
O       0.109115   -3.280231   -1.407938
C       0.089602   -2.124465    0.735903
N       0.037423   -0.771870    1.075658
H       0.977201    1.925288    0.239090
H      -0.414892    1.951686   -0.845413
H      -0.661863    1.849694    0.899328
H      -0.072580    0.544815   -2.813977
H       0.088121   -2.947791   -2.327912
H       0.119363   -2.894476    1.486611
H       0.035047   -0.429836    2.021777
