17

N      -0.293592   -1.128239   -0.184262
C      -0.178333    0.018746   -0.083169
C      -0.040504    1.449787   -0.001628
C       0.528199    2.077792    1.246880
C       1.023788    1.279803    2.394908
C       2.297316    0.890608    2.434298
C       3.237934    1.183501    1.292668
C       2.490914    1.225631   -0.047083
N       1.290635    2.090772    0.006646
H      -0.793036    1.991120   -0.569364
H       0.097807    3.045703    1.507018
H       0.335426    1.083737    3.211158
H       2.683363    0.356304    3.297226
H       3.754853    2.136444    1.473069
H       4.021292    0.420963    1.234286
H       3.137309    1.623756   -0.835336
H       2.221769    0.201812   -0.330138
