17

C       0.091797    1.675262    0.066286
C       1.598968    1.473283   -0.127524
N       2.047236    0.656984    1.027593
C       1.438794   -0.003494   -0.154632
C      -0.076330    0.118729    0.069603
C      -0.750047   -0.634934    1.236137
N      -1.741623   -1.525355    0.606403
C      -1.688281   -1.264668   -0.630272
O      -0.817378   -0.329368   -1.091121
H      -0.210193    2.205825    0.972789
H      -0.402526    2.100348   -0.809295
H       2.292304    2.109274   -0.662232
H       3.056714    0.538148    0.945586
H       1.957415   -0.772040   -0.714286
H      -0.024979   -1.210840    1.818263
H      -1.255815    0.043605    1.931614
H      -2.294612   -1.725598   -1.402313
