16

C      -0.054183    1.402098    0.035362
N      -0.207800   -0.041904   -0.018813
C       0.110309   -0.784398    1.188209
C      -0.057162   -0.634174   -1.237971
N       0.006929   -0.054483   -2.404340
C       0.078720   -1.120096   -3.297545
C       0.068468   -2.287620   -2.625402
O      -0.015972   -1.988608   -1.274983
H       0.999622    1.706359    0.125634
H      -0.460215    1.838971   -0.876515
H      -0.602570    1.786272    0.900624
H      -0.425531   -0.336162    2.029841
H      -0.209308   -1.820947    1.084243
H       1.186947   -0.771576    1.420041
H       0.138107   -0.957616   -4.362349
H       0.117800   -3.331220   -2.878794
