24

C      -0.236657    1.446013   -0.017358
N      -0.001183    0.019414    0.140479
C       1.304406   -0.505304   -0.241748
C       0.890105   -0.489604    1.197776
C       1.589926    0.473914    2.140337
C       0.397272   -1.791625    1.799918
C       1.391403   -2.799159    2.449476
C       0.282730   -3.158175    3.475580
C      -0.417706   -1.817229    3.127513
H       0.655820    2.080742    0.095659
H      -0.642857    1.621614   -1.019121
H      -0.985390    1.775923    0.710506
H       1.301875   -1.430005   -0.815085
H       2.071754    0.207864   -0.543744
H       2.039027    1.315472    1.609843
H       0.897949    0.878526    2.887145
H       2.395521   -0.033440    2.680329
H      -0.180370   -2.304869    1.025307
H       1.790626   -3.596337    1.817220
H       2.230567   -2.291369    2.935044
H      -0.307081   -4.018381    3.145823
H       0.583562   -3.321595    4.513044
H      -0.108745   -1.022276    3.813018
H      -1.507479   -1.805637    3.051448
