18

C      -0.157464    1.622521    0.001305
C       0.042250    0.114085   -0.018327
C       0.822248   -0.619465   -1.145570
C       2.093464    0.125549   -1.515564
O       2.830187    0.546577   -0.347987
C       2.386386    0.187330    0.885238
O       2.984653    0.525088    1.867012
C       1.091357   -0.608064    0.878756
N       1.256787   -1.680558   -0.169578
H       0.784261    2.167434   -0.106941
H      -0.824014    1.933571   -0.810442
H      -0.617404    1.937919    0.943466
H      -0.918043   -0.395611    0.120040
H       0.297609   -0.960429   -2.042022
H       2.753094   -0.526297   -2.096304
H       1.878062    1.026969   -2.099013
H       0.846063   -0.926987    1.890998
H       0.484358   -2.335143   -0.051163
