19

C      -0.251819    1.521822   -0.017362
C       0.032232    0.027215   -0.027812
C      -1.100675   -0.919218    0.452080
O      -0.208512   -1.578596    1.381725
C       0.851430   -0.621909    1.120672
C       2.084971   -1.330697    0.508500
O       2.200671   -2.666246    0.958351
C       1.826593   -1.199875   -0.982418
C       0.742053   -0.479328   -1.262291
H       0.668631    2.097934   -0.157616
H      -0.938320    1.794950   -0.826930
H      -0.708951    1.833080    0.927511
H      -1.918141   -0.414080    0.982673
H      -1.515744   -1.614244   -0.285859
H       1.069688   -0.020089    2.008381
H       3.019164   -0.831972    0.796253
H       1.289059   -2.980220    1.049660
H       2.475187   -1.675806   -1.709656
H       0.367147   -0.267334   -2.259356
