17

O       0.101071    1.441334    0.205254
C       0.035291    0.020888    0.081324
C      -1.448184   -0.379936    0.132832
O      -2.110464   -0.464174   -1.118016
C      -1.900352    0.576746   -2.040218
O      -0.882529    0.271255   -2.959443
C       0.449204    0.377617   -2.483819
C       0.710219   -0.459304   -1.219358
O       1.433565   -1.424768   -1.224391
H       1.021599    1.695376    0.331328
H       0.557103   -0.469757    0.912753
H      -1.533569   -1.379030    0.566849
H      -1.949466    0.336940    0.798428
H      -2.810198    0.648531   -2.640405
H      -1.698219    1.526253   -1.524278
H       1.094213   -0.007710   -3.274938
H       0.703379    1.427440   -2.277240
