15

O       0.430716    0.803653    0.973413
C      -0.007177    0.293225   -0.255284
C      -1.391535   -0.305364   -0.160795
N      -1.995320   -0.276919    1.015246
C      -3.225969   -0.805196    1.115022
C      -3.850464   -1.366342    0.016168
N      -3.257048   -1.406586   -1.187612
C      -2.049206   -0.883881   -1.268263
O      -1.409540   -0.898493   -2.452491
H      -0.292092    0.638416    1.598578
H      -0.016584    1.082028   -1.024952
H       0.685900   -0.479061   -0.626602
H      -3.704661   -0.772310    2.087860
H      -4.845119   -1.795566    0.087476
H      -2.003911   -1.327401   -3.084694
