20

C       0.034899    1.530791   -0.207838
C       0.089901    0.031961    0.105433
O       0.818512   -0.200437    1.307223
C      -1.320062   -0.574796    0.152334
C      -1.629354   -2.084867    0.106525
C      -0.861347   -2.678333    1.319382
C      -1.775019   -1.802026    2.171889
C      -2.796071   -1.717514    1.108817
N      -2.045798   -0.479777    1.470302
H       1.039886    1.958518   -0.167445
H      -0.384007    1.714688   -1.202826
H      -0.593647    2.050806    0.524276
H       0.663442   -0.480410   -0.678372
H       0.266538    0.123736    2.029125
H      -1.950677   -0.055515   -0.578169
H      -1.703289   -2.629074   -0.833476
H      -1.117716   -3.732054    1.460681
H       0.217460   -2.528348    1.373629
H      -1.903565   -1.783755    3.246138
H      -3.875301   -1.790980    1.089961
