22

C      -0.194204    1.570677    0.266167
C      -0.041337    0.057160    0.086939
C      -1.387423   -0.665200   -0.050524
C      -1.286405   -2.190783   -0.168076
O      -0.525660   -2.579632   -1.299008
C      -0.950239   -2.913722    1.178815
C      -2.461167   -3.228257    1.347393
C      -2.666717   -2.893533   -0.154715
H       0.779301    2.064441    0.345400
H      -0.727014    2.016447   -0.580834
H      -0.762308    1.804968    1.173160
H       0.568797   -0.131284   -0.806840
H       0.516922   -0.355749    0.937408
H      -2.018901   -0.418619    0.813452
H      -1.911566   -0.290037   -0.939297
H       0.359110   -2.209997   -1.211104
H      -0.364046   -3.815028    0.982058
H      -0.460095   -2.332790    1.965075
H      -2.723620   -4.237468    1.670268
H      -2.963863   -2.516253    2.007169
H      -3.534998   -2.290854   -0.434350
H      -2.632354   -3.785752   -0.784088
