17

C      -0.443122    0.538443    1.358365
N       0.143132    0.411440    0.026703
C       1.290424   -0.478804   -0.037011
C       1.027786   -1.915167    0.337664
N       1.728084   -2.691844    1.108398
C       1.010251   -3.869186    1.054516
N       1.383100   -4.961746    1.791614
N      -0.066023   -3.833909    0.301565
O      -0.053813   -2.502166   -0.179046
H       0.297050    0.975584    2.037644
H      -1.295175    1.221800    1.308988
H      -0.789031   -0.409973    1.800866
H      -0.562580    0.099606   -0.631697
H       1.690980   -0.458205   -1.058050
H       2.079845   -0.114166    0.627009
H       2.368762   -5.001039    2.000120
H       0.986424   -5.838538    1.489476
