14

O       0.745547    1.380446   -0.610700
C       0.071814    0.264389   -0.113133
C       0.183758   -0.930197   -1.095645
C      -0.438920   -0.533362   -2.421355
O      -1.625241   -0.542990   -2.629251
C       0.503773   -0.102219   -3.469767
N       1.247899    0.204111   -4.300021
C       0.616827   -0.133765    1.247150
O       1.526702    0.472008    1.755152
H       1.424287    1.602541    0.047138
H      -1.002753    0.482543    0.014110
H       1.235299   -1.201527   -1.222238
H      -0.380264   -1.785249   -0.709653
H       0.137837   -1.003369    1.739838
