18

C       0.012762    1.418053    0.039958
C       0.082475   -0.029902   -0.066896
C       0.131142   -1.230730   -0.160736
C       0.129312   -2.680015   -0.301799
O      -0.762205   -3.292617   -0.859070
N       1.233918   -3.281877    0.244289
C       1.368261   -4.705395    0.307507
C       1.760538   -5.457009   -0.935543
C       2.752110   -5.284942    0.187790
H      -0.020473    1.733510    1.088462
H       0.887421    1.889342   -0.421319
H      -0.881590    1.807811   -0.457230
H       1.851549   -2.709130    0.798107
H       0.670729   -5.201976    0.977875
H       1.313668   -6.431144   -1.094724
H       1.910333   -4.872461   -1.834811
H       3.571727   -4.591828    0.030689
H       2.998645   -6.139186    0.807700
