20

C       0.033812    1.234429   -0.430696
N      -0.081968   -0.115776    0.096681
C      -1.203000   -0.684651    0.125975
C      -1.476763   -2.070311    0.662675
C      -2.822517   -2.449028    0.028716
C      -2.652101   -3.130674   -1.329812
O      -3.543098   -3.274358    0.931347
C      -3.462192   -1.045452   -0.110133
O      -2.380294   -0.139478   -0.341867
H       0.709814    1.224439   -1.293818
H      -0.915941    1.688039   -0.734536
H       0.502407    1.872618    0.327120
H      -0.659829   -2.756166    0.437576
H      -1.601389   -2.033006    1.750518
H      -2.121434   -4.079968   -1.214952
H      -3.627894   -3.331069   -1.789467
H      -2.086486   -2.497068   -2.020009
H      -4.298135   -3.646894    0.464014
H      -4.161927   -0.956207   -0.946461
H      -3.978757   -0.789190    0.822983
