20

C      -0.013089    1.602371    0.002670
C       0.025878    0.067575    0.054211
C       0.620285   -0.516546   -1.236736
C       0.922997   -2.026438   -1.108446
C       1.941594   -2.274366    0.030241
C       1.640545   -1.445380    1.250812
C       0.785813   -0.423868    1.263156
C      -0.311571   -2.788620   -0.888215
N      -1.287509   -3.386591   -0.725273
H       0.997212    2.019447   -0.074046
H      -0.590861    1.951914   -0.859135
H      -0.476498    2.012626    0.905577
H      -1.013320   -0.284392    0.141908
H      -0.051053   -0.336555   -2.081983
H       1.567995   -0.011969   -1.461635
H       1.348848   -2.388140   -2.051358
H       1.958963   -3.338601    0.289812
H       2.946806   -2.041384   -0.347412
H       2.160495   -1.726034    2.163217
H       0.604879    0.109750    2.193971
