12

N       0.086030    1.370886    0.170412
C      -0.050259    0.015793    0.059408
C      -1.196244   -0.703216    0.024315
C      -1.156634   -2.153173   -0.021575
O      -2.131003   -2.871328   -0.051285
N       0.162040   -2.730196   -0.037333
C       1.163155   -1.963822   -0.011452
O       1.165567   -0.593628    0.036814
H       0.962054    1.754094   -0.150785
H      -0.727790    1.920910   -0.053673
H      -2.158301   -0.207818    0.035854
H       2.188539   -2.322973   -0.024811
