19

C       0.503413    1.284640    0.175427
O       0.513060   -0.133443    0.095663
C       0.459820   -0.631734   -1.198746
O       1.657038   -0.299522   -1.922705
C       2.574169   -1.315054   -1.828233
O       3.676295   -1.216996   -2.277461
C       1.930126   -2.491262   -1.106732
C       0.430832   -2.170918   -1.160010
C      -0.426356   -2.770293   -0.050102
H       1.390958    1.717298   -0.298551
H      -0.394875    1.699734   -0.304216
H       0.493591    1.541026    1.236247
H      -0.366052   -0.175841   -1.761033
H       2.219849   -3.430225   -1.580111
H       2.300538   -2.504980   -0.075475
H       0.045169   -2.494697   -2.133974
H      -0.074136   -2.446714    0.931765
H      -1.472676   -2.464013   -0.149893
H      -0.393063   -3.863276   -0.090118
