22

C      -0.468429    1.240222   -0.198021
C       0.053673   -0.194570   -0.041549
C       0.778000   -0.732560   -1.267541
C       0.527340   -2.150025   -1.655093
N      -0.025319   -1.050183   -2.468335
C       2.152211   -0.107161   -1.526968
O       3.048008   -0.473849   -0.480102
C       2.766045   -0.405606   -2.905344
O       2.027682    0.143930   -3.969402
H       0.343649    1.955525   -0.355569
H      -1.156561    1.329027   -1.045897
H      -1.008449    1.549852    0.701545
H       0.745173   -0.246095    0.806517
H      -0.785896   -0.860355    0.195518
H       1.286972   -2.744466   -2.153993
H      -0.157932   -2.726976   -1.040264
H      -1.016396   -0.925041   -2.277998
H       2.059501    0.981420   -1.452105
H       3.148049   -1.432391   -0.507658
H       3.762070    0.048261   -2.920175
H       2.915229   -1.495470   -3.019573
H       1.135642   -0.228953   -3.875584
