17

C      -0.001509    1.574473   -0.094120
C      -0.026656    0.039298    0.032417
C      -1.427198   -0.522780    0.005683
N      -2.005901   -0.806089    1.177699
C      -3.250293   -1.279320    1.154054
N      -3.994147   -1.510640    0.071766
C      -3.422812   -1.230986   -1.098021
C      -2.128721   -0.724310   -1.191666
O      -1.630256   -0.457909   -2.428836
H       1.025673    1.949049   -0.064021
H      -0.457926    1.912036   -1.030791
H      -0.558097    2.031283    0.728683
H       0.583721   -0.412545   -0.763042
H       0.426305   -0.261293    0.980153
H      -3.703913   -1.502634    2.115875
H      -3.997133   -1.408995   -2.004166
H      -0.720115   -0.153942   -2.353178
