17

C       0.023981    1.559152   -0.074013
C      -0.009566    0.027817    0.070561
C      -1.409944   -0.536205    0.040823
C      -2.077239   -0.894667    1.210339
N      -3.327035   -1.373733    1.253888
C      -3.949173   -1.509525    0.107818
F      -5.191487   -1.986520    0.161493
C      -3.410523   -1.199748   -1.138549
C      -2.116139   -0.704843   -1.156852
H       1.053304    1.930236   -0.055489
H      -0.432960    1.875864   -1.017090
H      -0.527502    2.040915    0.739356
H       0.583798   -0.423935   -0.733393
H       0.474816   -0.258533    1.010673
H      -1.577317   -0.795550    2.171783
H      -3.991114   -1.350163   -2.040068
H      -1.648095   -0.452073   -2.103934
