21

C       0.150524    1.569510   -0.057595
C       0.042036    0.048137    0.077068
C      -1.407639   -0.497328    0.028603
C      -2.220047   -0.041724    1.273401
O      -1.644430   -0.451677    2.490581
N      -2.129704   -0.042329   -1.155414
C      -1.598572   -0.467238   -2.450316
C      -1.340768   -1.986349    0.096552
N      -1.341632   -3.142188    0.155348
H       1.204017    1.861884   -0.093474
H      -0.338402    1.930020   -0.965645
H      -0.300740    2.086962    0.793670
H       0.626677   -0.438889   -0.709739
H       0.470163   -0.277712    1.029137
H      -2.247962    1.049452    1.281707
H      -3.254885   -0.403427    1.168022
H      -1.701788   -1.413022    2.543169
H      -3.099938   -0.330204   -1.081002
H      -2.299549   -0.156740   -3.229198
H      -0.645171    0.030206   -2.649378
H      -1.444210   -1.554360   -2.535663
