22

C      -0.355899    1.502152   -0.118174
C      -0.026048    0.005210   -0.064042
C       0.889398   -0.443120   -1.181711
C       0.339300   -0.872886   -2.496841
N       0.870215   -1.877632   -1.551841
C       2.258665   -2.273605   -1.828960
C       3.127043   -1.000024   -1.975628
O       3.245046   -0.547188   -3.325666
C       2.333553    0.056328   -1.188015
H       0.544538    2.117152   -0.016395
H      -0.830981    1.766388   -1.068912
H      -1.039813    1.781810    0.688807
H       0.440826   -0.235865    0.900737
H      -0.947778   -0.583803   -0.117007
H      -0.738635   -0.922766   -2.631032
H       0.911013   -0.650208   -3.391714
H       2.610508   -2.868352   -0.977288
H       2.312250   -2.909357   -2.720690
H       4.129307   -1.151263   -1.551168
H       3.662866   -1.248271   -3.836222
H       2.459640    1.041444   -1.644122
H       2.701838    0.114691   -0.157194
