23

C      -0.151439    1.610756   -0.011358
C      -0.010643    0.084383    0.061865
C      -1.376648   -0.599964    0.213090
C       0.736283   -0.459907   -1.159512
C       2.225656   -0.063393   -1.426297
C       2.577968   -1.547731   -1.764365
C       3.834404   -2.199596   -1.204778
C       1.225370   -1.920451   -1.135710
O       0.797362   -2.932278   -0.653233
H       0.821929    2.105763   -0.089514
H      -0.747967    1.906467   -0.882765
H      -0.653900    1.998127    0.881189
H       0.590886   -0.159890    0.949410
H      -2.022326   -0.371262   -0.643739
H      -1.265057   -1.685009    0.273794
H      -1.888525   -0.249958    1.115581
H       0.133143   -0.298257   -2.064279
H       2.406154    0.673725   -2.209638
H       2.723060    0.264653   -0.508149
H       2.513425   -1.709277   -2.848472
H       3.914416   -2.034859   -0.125284
H       3.814337   -3.280136   -1.375104
H       4.735404   -1.795425   -1.676905
