17

O      -0.041012    1.467336   -0.099997
C       0.121011    0.085331    0.022323
C       0.405709   -0.528849    1.458976
C      -0.887610   -1.336034    1.294699
O      -1.955015   -0.379215    1.080450
C      -1.159457   -0.779258   -0.041818
C      -1.750117   -1.860805   -0.923671
C      -1.830182   -3.035137    0.054214
C      -1.322017   -2.756499    1.264254
H      -0.803764    1.695370    0.446727
H       0.877486   -0.219556   -0.705071
H       1.308841   -1.143008    1.475778
H       0.425864    0.180097    2.289970
H      -2.732445   -1.599780   -1.333202
H      -1.098355   -2.087096   -1.776682
H      -2.307004   -3.972213   -0.215390
H      -1.275521   -3.439734    2.102985
