19

C       0.010441    1.499485    0.094999
C      -0.028540    0.005864   -0.047617
C       0.311725   -0.792470   -1.334975
C      -0.354966   -1.941253   -0.521721
C       0.612960   -2.028604    0.661431
O       0.800557   -0.623364    0.942674
C      -1.353597   -0.846085    0.007941
C      -2.050194   -1.016164    1.261873
C      -2.628708   -1.153807    2.307728
H       1.036857    1.864735   -0.007241
H      -0.608403    1.976755   -0.669756
H      -0.361058    1.793581    1.081126
H      -0.270845   -0.488295   -2.206236
H       1.370861   -0.889459   -1.583161
H      -0.704708   -2.869171   -0.970997
H       0.188669   -2.530425    1.537036
H       1.570370   -2.493808    0.400208
H      -2.040078   -0.541913   -0.786595
H      -3.137497   -1.272173    3.232075
