24

C       0.022593    1.559683    0.091473
C       0.029335    0.024232    0.030824
C       0.778738   -0.549915    1.240786
C      -1.410066   -0.546001   -0.069341
C      -2.193763   -0.009207   -1.278633
N      -1.428423   -2.011207   -0.043618
C      -0.811563   -2.771649   -1.119254
C      -2.049719   -2.688387    0.965793
O      -2.133536   -3.895270    1.067447
H       1.040107    1.938711    0.228069
H      -0.376212    2.013894   -0.818998
H      -0.576901    1.917179    0.937771
H       0.569715   -0.269113   -0.880030
H       0.840069   -1.640353    1.207428
H       1.798697   -0.155499    1.283577
H       0.279221   -0.273872    2.177382
H      -1.942497   -0.234977    0.839406
H      -1.650177   -0.162550   -2.216578
H      -3.159388   -0.516623   -1.356948
H      -2.383892    1.061485   -1.177497
H       0.269512   -2.599187   -1.164459
H      -0.995046   -3.826481   -0.914849
H      -1.245065   -2.512159   -2.090580
H      -2.486963   -1.996154    1.711928
