14

O       0.014893    1.370778    0.356405
C       0.009087   -0.000023   -0.002246
C      -1.409396   -0.461651   -0.023882
C      -2.594066    0.206119   -0.124210
N      -3.667914   -0.676212   -0.117292
C      -3.119365   -1.853552   -0.016542
O      -3.746914   -3.042457    0.028812
N      -1.762960   -1.809519    0.045628
H       0.874560    1.733849    0.125517
H       0.482435   -0.148262   -0.988554
H       0.589591   -0.607334    0.716157
H      -2.739966    1.271610   -0.190328
H      -4.690791   -2.846908   -0.026098
H      -1.151498   -2.601753    0.145582
