19

O       0.489169   -0.240326   -0.456310
C       0.140022    0.878823   -0.190339
C       1.097062    2.046001    0.050519
O       2.397580    1.596742    0.355774
C       3.233252    1.657388   -0.809253
C       2.342782    2.129005   -1.971374
C       1.235747    2.866019   -1.232728
C       0.095575    3.575650   -1.907297
C       1.170421    4.370871   -1.202726
H      -0.939363    1.155604   -0.134090
H       0.710721    2.643905    0.887481
H       4.048081    2.366230   -0.613531
H       3.667238    0.668597   -0.986134
H       2.876613    2.764052   -2.682181
H       1.936798    1.269853   -2.515066
H       0.074806    3.583521   -2.991888
H      -0.887453    3.536635   -1.449971
H       0.914535    4.857922   -0.267471
H       1.881971    4.918945   -1.811824
