18

C       0.004555    1.500562   -0.128201
C       1.375440    2.078883    0.114430
C       2.473264    1.367945    0.368120
C       2.531578   -0.135908    0.455724
C       1.186448   -0.758898    0.222783
C       0.824703   -2.087730    0.220879
N      -0.520600   -2.152790   -0.041027
C      -1.027177   -0.888476   -0.207033
C       0.011327    0.002097   -0.048776
H      -0.700708    1.932484    0.598254
H      -0.360975    1.843584   -1.108242
H       1.445432    3.163506    0.073264
H       3.414960    1.888062    0.528387
H       3.271596   -0.508828   -0.268887
H       2.935977   -0.422590    1.438560
H       1.403965   -2.983273    0.382004
H      -1.055488   -3.000598   -0.102228
H      -2.072665   -0.731854   -0.421341
