19

C       0.282014    1.554577    0.112785
C       0.120507    0.051471   -0.005981
C       0.735684   -0.601579   -1.263248
C       1.206348   -1.966158   -0.756912
O       0.791841   -3.131933   -1.398514
C       2.483258   -1.975668    0.072107
O       3.324796   -0.870086    0.118854
C       1.128917   -1.890451    0.745210
O       0.793082   -0.577856    1.115284
H       1.337168    1.837254    0.038827
H      -0.264593    2.057881   -0.690623
H      -0.107374    1.912018    1.070049
H      -0.944942   -0.216126    0.054059
H      -0.001812   -0.735348   -2.057599
H       1.569179   -0.002845   -1.645972
H       1.402856   -3.307051   -2.122889
H       3.004556   -2.928850    0.126270
H       2.907333   -0.251734    0.736165
H       0.732196   -2.684321    1.369641
