21

C      -0.301367    1.492673    0.049314
C       0.083222    0.004482    0.053667
C       0.789560   -0.442808   -1.212462
C       2.094370   -0.785175   -1.192270
C       2.808297   -1.356479   -2.390936
C       2.878881   -0.296964   -3.461676
C       1.769979    0.160700   -4.071024
C       0.417801   -0.174277   -3.685990
C      -0.010202   -0.450913   -2.426119
H       0.589279    2.123134   -0.038018
H      -0.957426    1.729809   -0.794082
H      -0.823433    1.765957    0.971963
H       0.719141   -0.207521    0.919539
H      -0.826331   -0.598639    0.183163
H       2.660738   -0.661726   -0.272001
H       3.807651   -1.702978   -2.117188
H       2.250207   -2.222954   -2.773772
H       3.853014    0.088839   -3.749905
H       1.876312    0.846282   -4.909254
H      -0.341438   -0.088229   -4.460719
H      -1.084312   -0.563117   -2.283626
