15

C      -0.184531    1.571713    0.091579
C       0.096561    0.100232    0.057321
C      -0.760577   -0.961209    0.714052
C       0.679239   -0.758974    1.131590
O       1.631298   -1.586772    0.499721
C       1.628084   -1.318533   -0.846387
N       2.310965   -1.888791   -1.732386
O       0.747630   -0.324054   -1.130898
H       0.735095    2.145106   -0.057455
H      -0.894375    1.847039   -0.694488
H      -0.619283    1.850861    1.055054
H      -1.521568   -0.617251    1.406386
H      -1.010062   -1.852467    0.148435
H       0.977532   -0.437010    2.121042
H       2.905706   -2.599757   -1.314314
