19

C       0.158928    1.405867   -0.142372
C      -0.046855   -0.077161    0.049406
O      -0.235608   -0.633323    1.100696
O       0.007819   -0.724366   -1.136830
C      -0.169065   -2.151634   -1.078659
C      -0.089690   -2.674238   -2.495939
C       1.314336   -2.680128   -3.139650
O       1.363140   -4.122433   -3.128886
C       0.018166   -4.211066   -2.619901
H       1.133912    1.592658   -0.601473
H      -0.600752    1.806357   -0.819496
H       0.100283    1.907563    0.822577
H       0.612588   -2.587240   -0.446142
H      -1.134382   -2.379355   -0.613973
H      -0.869167   -2.216116   -3.108219
H       1.365849   -2.275672   -4.157974
H       2.115330   -2.233208   -2.538053
H      -0.031345   -4.773929   -1.678463
H      -0.667703   -4.670651   -3.342428
