21

C       0.033099    1.321306   -0.114341
O       0.019132   -0.083204   -0.012623
C       0.677365   -0.565659    1.142418
C       0.664001   -2.083603    1.081052
N       1.405678   -2.539424   -0.089100
C       1.312623   -3.970427   -0.316985
C       2.205829   -4.360764   -1.508640
C       2.184396   -5.795764   -1.777121
N       2.157843   -6.934058   -1.974307
H       1.059646    1.716934   -0.162345
H      -0.493243    1.588865   -1.033678
H      -0.477721    1.795453    0.738187
H       1.716642   -0.200515    1.170951
H       0.167211   -0.216473    2.054862
H       1.139632   -2.481819    1.986145
H      -0.386124   -2.428253    1.085957
H       1.043710   -2.033329   -0.892678
H       1.668714   -4.490912    0.579687
H       0.283600   -4.328083   -0.499865
H       1.877651   -3.832568   -2.412165
H       3.234188   -4.041979   -1.310410
