19

C      -0.325506    1.344344   -0.106303
N       0.058818   -0.049046    0.031384
C       0.090590   -0.640670    1.359462
C      -1.274968   -0.834083    1.990105
C      -2.113578   -2.026235    1.610504
C      -1.480118   -1.954933    2.977820
C       0.364847   -0.777325   -1.079843
O       0.341837   -0.371554   -2.223199
H       0.300726    1.978650    0.532504
H      -0.187918    1.624892   -1.150632
H      -1.374541    1.503265    0.169467
H       0.590086   -1.612615    1.277321
H       0.716797   -0.014803    2.011025
H      -1.813865    0.085556    2.199061
H      -3.186946   -1.897646    1.530266
H      -1.698834   -2.729299    0.895131
H      -0.639861   -2.610898    3.182601
H      -2.117294   -1.774499    3.836157
H       0.655472   -1.814491   -0.818331
