23

C      -0.154851    1.567278    0.088447
C       0.031426    0.044444    0.004138
C       0.530853   -0.414237   -1.384739
C       1.951743    0.046266   -1.764730
C       3.044626   -0.744491   -1.063119
C       4.181443   -0.034354   -0.349571
C       3.117618   -0.727967    0.442500
O       2.223045    0.070756    1.155224
C       0.897657   -0.456575    1.170219
H       0.807120    2.086512    0.085354
H      -0.750343    1.941336   -0.750713
H      -0.670078    1.844015    1.014443
H      -0.955646   -0.418935    0.150965
H       0.486479   -1.510228   -1.439933
H      -0.178149   -0.042957   -2.135635
H       2.086095   -0.053804   -2.848201
H       2.062820    1.113360   -1.548747
H       3.287901   -1.695016   -1.531802
H       5.176733   -0.464346   -0.369247
H       4.154955    1.050115   -0.345742
H       3.379629   -1.656675    0.952338
H       0.452998   -0.130093    2.117819
H       0.930579   -1.556041    1.180609
