18

C       0.029942    1.457448   -0.078155
N      -0.000167    0.019173   -0.070279
C      -1.099744   -0.944501   -0.092550
C      -0.026362   -2.073740   -0.038675
C       0.022890   -3.033365   -1.236256
C       1.127639   -3.981383   -1.163641
C       2.027688   -4.773005   -1.086081
C       1.007242   -0.914757   -0.031291
O       2.204937   -0.806422   -0.008994
H       1.078274    1.764893   -0.056910
H      -0.440195    1.866446   -0.981088
H      -0.479626    1.877356    0.798081
H      -1.767746   -0.885687    0.774389
H      -1.697715   -0.917488   -1.012209
H      -0.029244   -2.634507    0.898823
H      -0.925364   -3.584493   -1.288670
H       0.092027   -2.452579   -2.165493
H       2.835683   -5.458902   -1.023912
