17

C       0.040046    1.670768    0.063409
C       0.025571    0.161677    0.037836
C       1.266607   -0.668986   -0.235325
O       2.506076   -0.002611   -0.098041
C       2.817479   -0.051228    1.288211
O       1.574451   -0.028499    1.977601
C       0.654221   -0.686142    1.129064
C       3.609243   -1.244194    1.628656
C       4.267885   -2.208041    1.912200
H       0.970392    2.051658    0.486372
H      -0.062081    2.074762   -0.948757
H      -0.788376    2.054308    0.667354
H      -0.879121   -0.282521   -0.373880
H       1.273181   -1.505758   -0.924428
H       3.364264    0.861164    1.545012
H       0.151791   -1.537138    1.574547
H       4.850055   -3.060620    2.162880
