25

C      -0.173058    1.534878   -0.069213
C       0.032573    0.006318   -0.007455
C       0.734712   -0.451068   -1.266736
C       1.988004   -0.899869   -1.319121
C       2.864532   -1.042168   -0.105590
C       2.282674   -0.306881    1.109824
C       0.759197   -0.514216    1.272566
C       0.283562    0.221807    2.535978
C       0.440341   -2.013957    1.445461
H       0.778324    2.070976    0.008621
H      -0.623908    1.814542   -1.027213
H      -0.835692    1.891230    0.723929
H      -0.973029   -0.440925   -0.008433
H       0.158371   -0.367175   -2.186633
H       2.412508   -1.200564   -2.274581
H       3.001217   -2.109854    0.121506
H       3.871691   -0.665068   -0.324579
H       2.795796   -0.627665    2.024444
H       2.483250    0.766709    1.005850
H       0.572218    1.276873    2.531412
H      -0.806304    0.170898    2.641918
H       0.722942   -0.236257    3.429176
H       1.021420   -2.445228    2.268467
H      -0.620409   -2.156266    1.680053
H       0.657236   -2.585704    0.539481
