23

C       0.575409    0.711453    0.991114
C       0.224048   -0.781234    0.993064
C      -1.219155   -1.041396    0.585727
C      -1.730554   -0.821585   -0.890381
C      -0.846137   -1.810428   -1.657631
C      -0.862045   -2.902180   -0.885209
C      -1.755397   -2.490973    0.291199
C      -2.923704   -1.789686   -0.513033
C      -4.131838   -1.240404    0.235909
H       1.606536    0.877528    1.318413
H       0.472245    1.140218   -0.011668
H      -0.081216    1.278809    1.660674
H       0.905779   -1.322311    0.329674
H       0.379717   -1.189954    2.000763
H      -1.874546   -0.525928    1.294729
H      -1.899913    0.170370   -1.311403
H      -0.351587   -1.633665   -2.602316
H      -0.385330   -3.861904   -1.026348
H      -1.946046   -3.214405    1.085556
H      -3.269478   -2.385530   -1.362783
H      -3.876185   -0.628324    1.104285
H      -4.742739   -0.624283   -0.433818
H      -4.764910   -2.063458    0.586694
