17

C      -0.176892    1.497044    0.303079
C       0.026157    0.025965   -0.009006
C       1.411044   -0.450694   -0.393035
C       0.831656   -0.807496    0.954952
C      -1.177256   -0.586090   -0.724455
O      -1.433901    0.032743   -1.974361
C      -1.058412   -2.051786   -0.892824
N      -0.952455   -3.191915   -1.049229
H       0.723832    1.925464    0.751024
H      -0.412851    2.061707   -0.603221
H      -1.002082    1.638628    1.011042
H       1.505789   -1.254682   -1.115919
H       2.201689    0.289888   -0.440699
H       1.220194   -0.303714    1.833255
H       0.549651   -1.841390    1.118117
H      -2.079133   -0.400736   -0.128206
H      -0.630343   -0.040442   -2.503758
