13

O      -0.043612    1.380961    0.010970
C       0.004112    0.025384    0.003594
C       1.165435   -0.669599   -0.007066
F       2.358127   -0.061117   -0.010969
N       1.232067   -2.034737   -0.014736
C       0.074903   -2.766127   -0.011879
C      -1.131467   -2.152183   -0.001417
C      -1.282261   -0.696923    0.007772
O      -2.358175   -0.114198    0.016248
H       0.857298    1.725467    0.007186
H       2.139377   -2.470476   -0.022393
H       0.203980   -3.840602   -0.018583
H      -2.039835   -2.740946    0.000541
