25

C      -0.008305    1.609504   -0.041019
C       0.058851    0.075525    0.012872
C       0.726652   -0.488663   -1.267079
C       0.273389   -1.904760   -1.654434
C       0.589942   -3.026982   -0.655125
C      -0.036667   -2.835506    0.741853
C       0.648033   -1.777856    1.574408
C       0.724579   -0.477098    1.274341
C       1.509103    0.461015    2.157852
H       0.987632    2.059909   -0.108622
H      -0.572478    1.927974   -0.923291
H      -0.506655    2.029002    0.838037
H      -0.980289   -0.286204    0.010543
H       0.489696    0.177302   -2.106714
H       1.817579   -0.458734   -1.148961
H      -0.813504   -1.883664   -1.820980
H       0.719677   -2.162406   -2.623072
H       0.227375   -3.971694   -1.079467
H       1.676793   -3.132509   -0.544922
H      -1.104612   -2.599536    0.618148
H      -0.001404   -3.788545    1.279656
H       1.151249   -2.127333    2.473915
H       1.958423   -0.079375    2.994990
H       2.319052    0.955306    1.606161
H       0.885336    1.262342    2.571111
