19

C       0.165362    1.253476    0.636203
C      -0.025116    0.071511   -0.294639
O       0.828439   -0.231943   -1.101583
C      -1.309654   -0.721326   -0.170164
C      -2.495547   -0.057524    0.507332
C      -1.567151   -1.723762   -1.255059
C      -1.155984   -2.242846    0.103188
C       0.161033   -2.907997    0.286073
O       0.336299   -3.794832    1.088169
H       1.150659    1.686627    0.463887
H      -0.604271    2.013639    0.465389
H       0.075449    0.939671    1.682064
H      -2.795397    0.852814   -0.023334
H      -3.356466   -0.731539    0.511980
H      -2.281286    0.210752    1.546083
H      -2.592767   -1.890499   -1.563845
H      -0.821284   -1.773410   -2.040617
H      -1.927675   -2.660034    0.742641
H       0.973602   -2.551158   -0.375332
