21

O      -0.132391    1.484442   -0.175465
C      -0.030879    0.069458   -0.093457
C      -1.439389   -0.480635    0.112463
C      -1.471297   -1.981621    0.193985
C      -1.504073   -2.867304   -1.032166
C      -2.670363   -2.852976   -0.054025
C      -2.660864   -3.893850    1.052890
C      -1.223219   -3.788005    1.609864
O      -0.765633   -2.469488    1.317371
H       0.756747    1.844474   -0.238403
H       0.400337   -0.354863   -1.014468
H       0.608155   -0.242996    0.744411
H      -1.852443   -0.054397    1.033843
H      -2.074094   -0.147008   -0.715496
H      -1.662509   -2.381886   -1.989411
H      -0.860893   -3.740019   -1.078890
H      -3.618398   -2.435393   -0.373464
H      -3.398624   -3.621964    1.815259
H      -2.887744   -4.909245    0.713601
H      -1.161803   -3.933803    2.691989
H      -0.567086   -4.530571    1.134524
