17

C       0.013229    1.527832    0.088301
C       0.018103    0.028100   -0.025940
C       0.674725   -0.686878   -1.242517
C       1.076397   -1.701456   -0.141119
O       0.986694   -0.639538    0.850548
C      -0.065664   -2.667013    0.093367
C      -1.263417   -2.116934    0.331896
C      -1.350081   -0.633060    0.267057
O      -2.377651   -0.006086    0.401357
H       1.010972    1.926853   -0.110082
H      -0.698214    1.955927   -0.623064
H      -0.299939    1.831572    1.091175
H       0.044760   -1.033992   -2.062797
H       1.527016   -0.115092   -1.616054
H       2.061193   -2.171265   -0.164788
H       0.099009   -3.739235    0.054273
H      -2.171404   -2.674762    0.532407
