20

C      -0.437040    1.454554   -0.102325
C      -0.068012   -0.024910   -0.013902
C       1.126992   -0.445009   -0.918829
C       2.057315   -0.462992    0.338750
O       2.856995   -1.603859    0.560110
C       2.870841    0.756558    0.453858
N       3.531867    1.703104    0.524750
C       0.776959   -0.460119    1.230992
C       0.746617    0.327498    2.529954
H       0.437121    2.106124   -0.005215
H      -0.902702    1.670807   -1.069707
H      -1.150304    1.733377    0.680093
H      -0.968083   -0.628388   -0.156943
H       1.035537   -1.463957   -1.301555
H       1.402979    0.229846   -1.731969
H       3.635477   -1.556705   -0.007023
H       0.584511   -1.518594    1.433367
H       0.972126    1.386042    2.374826
H      -0.240768    0.257037    2.998079
H       1.480352   -0.070319    3.238394
