17

C      -0.119055    1.563181    0.072869
C       0.023990    0.062408   -0.039779
C       0.689699   -0.618052   -1.206196
C       1.279580    0.133542   -2.377787
C       1.374483   -0.629877    0.163193
C       2.563541    0.134438    0.395949
C       3.567664    0.766683    0.600214
H       0.778149    2.087724   -0.261801
H      -0.966423    1.920135   -0.522785
H      -0.296307    1.854481    1.113534
H      -0.808936   -0.487250    0.391644
H       0.258372   -1.578198   -1.478387
H       1.806896    1.036400   -2.063283
H       2.000558   -0.494029   -2.912206
H       0.498046    0.423707   -3.088605
H       1.345654   -1.574956    0.698084
H       4.454695    1.320256    0.783473
