15

O      -0.219905    0.100431    0.304996
C      -0.125630    1.271947    0.065988
N      -1.226989    2.123836   -0.317261
C      -0.663430    3.385415    0.061020
C      -0.621183    3.934668    1.282257
C       0.841808    4.131272    1.633887
N       1.609532    3.471046    0.546583
C       1.166461    2.105516   -0.056567
C       0.713066    3.413546   -0.578708
H      -2.107701    1.841974    0.098108
H      -1.398693    3.858412    2.032230
H       1.212648    5.163962    1.687257
H       1.043019    3.662455    2.603781
H       2.033594    1.563807   -0.414190
H       0.935659    3.852435   -1.546453
