18

N       0.784542    0.091577   -0.375095
C      -0.027587   -0.149001    0.675382
O       0.025597    0.390567    1.763908
N      -1.020238   -1.137190    0.451124
C      -1.317419   -1.888175   -0.667846
N      -0.658828   -1.749709   -1.758902
C      -2.440421   -2.882991   -0.446218
C      -1.972679   -4.126697    0.317370
O      -3.100319   -4.970258    0.461113
H       1.483390    0.803358   -0.257691
H       0.626889   -0.397554   -1.251768
H      -1.593060   -1.259986    1.271085
H      -1.006860   -2.381503   -2.474330
H      -3.261445   -2.419452    0.112550
H      -2.842453   -3.194003   -1.413813
H      -1.164465   -4.617132   -0.246679
H      -1.558373   -3.833468    1.294291
H      -2.828007   -5.763540    0.931894
