20

C      -0.185062    1.410132    0.049057
C       0.004375   -0.084394   -0.128699
C       0.912283   -0.519332   -1.293305
C       2.074531   -0.520349   -0.236606
N       1.041876   -0.607557    0.835507
C       1.588155   -1.858311    0.200196
C       2.195097   -2.892252    1.094247
C       0.913473   -2.069563   -1.148059
O      -0.303402   -2.779813   -1.128616
H       0.767012    1.944948   -0.032125
H      -0.865180    1.803770   -0.713888
H      -0.611900    1.627233    1.032965
H      -0.951567   -0.614116   -0.056980
H       0.893890   -0.042901   -2.273222
H       3.032247   -0.026458   -0.143631
H       2.721931   -2.417573    1.926030
H       1.419647   -3.542825    1.512039
H       2.904126   -3.520270    0.543917
H       1.632439   -2.522197   -1.845555
H      -0.587271   -2.928629   -2.036052
