19

C      -3.577369    0.137905    1.534892
O      -2.906083   -1.031701    1.122116
C      -2.019193   -0.807340    0.050402
C      -1.264054   -2.095420   -0.209989
C      -0.361320   -2.570044    0.915941
C       0.854581   -1.675278    1.076856
O       1.223061   -1.202919    2.121175
C      -1.796932   -3.045865   -1.194153
O      -0.702505   -2.184058   -1.526186
H      -4.225549   -0.136931    2.369894
H      -2.871753    0.913612    1.869405
H      -4.195367    0.558556    0.726493
H      -2.554156   -0.507073   -0.864185
H      -1.310032    0.002123    0.297041
H      -0.911175   -2.604529    1.859239
H       0.005530   -3.576737    0.678893
H       1.407392   -1.487138    0.129867
H      -1.549763   -4.102634   -1.108836
H      -2.733863   -2.825514   -1.702591
