13

N       0.021959   -1.143256   -0.008847
C       0.006477    0.012778   -0.006738
C      -0.011770    1.462218   -0.003057
C      -0.657635    2.430168    1.020197
N      -0.036248    3.401334    0.001795
C       1.176563    2.455769    0.037527
C      -0.591799    2.436290   -1.059370
H      -1.748030    2.470492    1.060264
H      -0.210357    2.487760    2.014562
H       1.755450    2.515041    0.961409
H       1.812909    2.520192   -0.847423
H      -0.082652    2.499437   -2.023205
H      -1.677500    2.477087   -1.168113
