16

O       0.004510    1.446556   -0.088680
C       0.024096    0.044042   -0.001486
C      -0.028820   -0.642334    1.392186
C      -1.490732   -0.121786    1.496889
O      -2.374501   -0.839307    2.353407
C      -2.264035   -2.179309    2.227340
N      -1.468156   -2.775124    1.442596
C      -0.649815   -1.878211    0.654878
C      -1.359926   -0.626341    0.029430
H       0.896608    1.771724    0.067337
H       0.738330   -0.402303   -0.705009
H       0.726802   -0.663304    2.177204
H      -1.662925    0.935038    1.674345
H      -2.947159   -2.707122    2.887266
H       0.016117   -2.437188   -0.004449
H      -2.126621   -0.625482   -0.743743
