20

O       0.335517    0.506114    0.930650
C      -0.163308    0.241033   -0.375699
C      -1.525698   -0.414677   -0.367591
C      -1.923652   -1.409880   -1.441497
O      -1.010579   -1.798312   -2.420312
C      -1.702873   -1.890962   -0.028656
N      -0.520757   -2.696645    0.140019
C      -0.127530   -3.047029    1.506488
C      -0.718102   -4.069099    0.599553
H       0.482690   -0.345461    1.353570
H      -0.237265    1.217592   -0.864997
H       0.543420   -0.358883   -0.960314
H      -2.323202    0.222342    0.005775
H      -2.936119   -1.368061   -1.831700
H      -0.334608   -2.318695   -1.962377
H      -2.566835   -2.166538    0.579899
H       0.940298   -3.046125    1.708160
H      -0.751646   -2.681260    2.319175
H      -1.737944   -4.388517    0.803192
H      -0.087076   -4.820449    0.134649
