20

C      -0.137731    1.576778    0.582761
C       0.016946    0.110393    0.238467
C       0.415515   -0.375022   -1.123943
C       0.700853    0.548554   -2.267163
C       1.080735   -0.028743   -3.583380
N      -0.242840    0.590105   -3.400429
N       1.308871   -0.545880    0.023711
C       2.556068    0.200107    0.110401
H       0.499694    2.235246   -0.009493
H      -1.174412    1.887348    0.415779
H       0.092649    1.749931    1.639769
H      -0.675598   -0.522756    0.794598
H      -0.016334   -1.318768   -1.468752
H       1.095672    1.528007   -2.018023
H       1.751624    0.511846   -4.245066
H       1.145671   -1.111667   -3.657820
H      -0.946715   -0.136159   -3.281781
H       2.514940    1.249210   -0.213556
H       2.899394    0.184855    1.149905
H       3.310514   -0.308348   -0.498180
