21

C       0.352162    1.628213   -0.636745
C       0.202758    0.220088   -0.296589
C       0.078656   -0.945764   -0.019688
C      -0.076471   -2.354933    0.326185
C       0.265296   -2.678518    1.811644
C      -0.514753   -3.971490    2.132583
C      -1.750844   -3.912684    1.244859
C      -2.516151   -2.611613    1.194217
C      -1.489356   -2.919776    0.135544
H       1.029379    1.764621   -1.487477
H      -0.610099    2.078051   -0.906331
H       0.759597    2.201820    0.203502
H       0.593260   -2.945602   -0.315064
H       1.342051   -2.778743    1.966240
H      -0.069879   -1.854405    2.446837
H       0.078994   -4.853894    1.864337
H      -0.749291   -4.054417    3.199578
H      -2.291537   -4.833013    1.052123
H      -3.557311   -2.663299    0.895103
H      -2.310388   -1.837919    1.926832
H      -1.825830   -3.094157   -0.880000
