18

C       0.061703    1.468188    0.188343
C       0.068963    0.006924   -0.202688
O       1.032201   -0.547213   -0.681798
C      -1.229513   -0.781048    0.014849
C      -1.922392   -0.993546   -1.326079
C      -1.070024   -2.025408    0.924449
C      -1.964627   -1.247677    1.907603
O      -2.103840   -0.143566    0.984672
H       0.993911    1.937446   -0.127761
H      -0.798198    1.982236   -0.253730
H      -0.060531    1.559773    1.272175
H      -1.253756   -1.525786   -2.008519
H      -2.837061   -1.576728   -1.187434
H      -2.193906   -0.034603   -1.779802
H      -1.510174   -2.936414    0.515739
H      -0.050535   -2.233097    1.249282
H      -2.933233   -1.702682    2.142310
H      -1.483145   -0.937939    2.843189
