14

C      -0.059668    1.522731    0.016558
C       1.433983    1.904236   -0.044337
N       2.189750    1.490732    1.145009
C       2.304971    0.676883   -0.094120
C       1.354678   -0.454017   -0.049377
N       1.363009   -1.749421   -0.074618
O       0.025759   -2.098448    0.022598
N      -0.795784   -0.985128    0.104968
C       0.018499    0.021515    0.054003
H      -0.544217    1.946570    0.900299
H      -0.597620    1.876021   -0.868986
H       1.722589    2.812518   -0.561865
H       3.023874    2.066027    1.239966
H       3.242040    0.631978   -0.633816
