11

C      -0.006370   -1.190473   -0.003908
C      -0.032389    0.011213    0.003495
C      -0.020636    1.421886    0.011339
N      -1.130618    2.173138    0.029567
N      -0.659679    3.409969    0.030623
N       0.649154    3.564744    0.015005
C       1.095343    2.303018    0.002210
C       2.476361    1.981070   -0.017077
N       3.594078    1.684579   -0.032883
H       0.016249   -2.252784   -0.010732
H      -1.279800    4.205937    0.042940
