21

O       0.208135    1.378342   -0.205858
C       0.048583   -0.002484   -0.034337
C      -0.008610   -0.658706    1.383289
C      -1.461212   -0.103390    1.514408
C      -1.380026   -0.655269    0.048120
C      -2.453418   -0.655062   -1.004060
C      -0.642992   -1.862158    0.668667
C      -0.071367   -3.101290    0.073478
C      -1.135677   -3.173184    1.170304
H      -0.340242    1.843916    0.433494
H       0.733414   -0.474567   -0.742547
H       0.769435   -0.675471    2.147335
H      -2.125728   -0.641738    2.194012
H      -1.587720    0.976929    1.645427
H      -2.714434    0.369398   -1.290589
H      -2.116499   -1.175544   -1.907594
H      -3.365309   -1.148228   -0.649433
H      -0.368071   -3.386326   -0.931576
H       0.941904   -3.391158    0.334275
H      -0.823363   -3.510748    2.153803
H      -2.128902   -3.506049    0.883531
