15

C      -0.126320    1.573171    0.057039
C       0.125191    0.095103    0.045991
C      -0.752579   -0.920457    0.762736
C       0.710158   -0.740983    1.136720
O       1.655251   -1.598511    0.546847
C       1.402755   -1.564798   -0.847113
O       0.750854   -0.345999   -1.144395
H       0.802839    2.121803   -0.125004
H      -0.846860    1.851645   -0.719004
H      -0.533016    1.883938    1.023121
H      -1.482917   -0.525051    1.461237
H      -1.064733   -1.822897    0.248994
H       1.023010   -0.383056    2.109600
H       2.352842   -1.612051   -1.389321
H       0.767738   -2.418225   -1.137073
