17

C      -0.433027    1.348235   -0.308563
C      -0.239569   -0.077882   -0.083246
C      -0.070684   -1.252198    0.130995
C       0.107707   -2.686751    0.383389
N      -1.116437   -3.488905    0.330803
C      -1.790536   -3.491612   -0.760699
N      -1.554842   -2.848011   -1.940937
C      -3.007421   -4.370838   -0.765158
O      -3.761949   -4.443980   -1.704953
H       0.169968    1.707414   -1.149611
H      -1.481578    1.575905   -0.529496
H      -0.148609    1.928696    0.575748
H       0.837483   -3.087456   -0.339822
H       0.550290   -2.822214    1.375891
H      -1.023609   -1.990361   -1.917635
H      -2.317175   -2.898331   -2.602759
H      -3.142769   -4.934769    0.176017
