18

C      -0.155273    1.488198   -0.034100
N       0.116478    0.067359    0.006183
C       0.769912   -0.520082   -1.182832
C       1.314159   -1.902576   -0.717115
C       1.500677   -1.652963    0.753145
C       2.068799   -2.109733    1.893319
O       1.754299   -1.285578    2.932205
C       0.956288   -0.270577    2.439403
C       0.777277   -0.473496    1.109027
H       0.762444    2.100592   -0.083775
H      -0.771424    1.720963   -0.907941
H      -0.715945    1.781647    0.858121
H       0.059902   -0.595523   -2.012074
H       1.608859    0.117263   -1.512584
H       0.570657   -2.688702   -0.895623
H       2.223178   -2.181060   -1.255987
H       2.699549   -2.947707    2.140726
H       0.642051    0.466479    3.156569
