20

C      -0.061176    1.528648   -0.055764
C      -0.018754    0.001397   -0.031047
N      -1.332478   -0.594651    0.148284
C      -1.385096   -2.041392   -0.091595
C      -2.811000   -2.386399    0.349101
O      -3.053907   -3.734430    0.630331
C      -2.948350   -1.501238    1.585391
O      -3.642485   -1.774328    2.531956
C      -1.964489   -0.349328    1.442801
H       0.935254    1.931542   -0.259681
H      -0.745297    1.881346   -0.833108
H      -0.392438    1.940764    0.902540
H       0.378344   -0.366208   -0.984520
H       0.685281   -0.338318    0.755203
H      -1.186908   -2.259117   -1.144264
H      -0.668593   -2.618519    0.522887
H      -3.510365   -1.995921   -0.411395
H      -3.582717   -3.744715    1.441758
H      -1.261399   -0.405401    2.297543
H      -2.462917    0.624100    1.497448
