21

C      -0.171667    1.669092    0.193270
C      -0.264057    0.141900    0.226820
C       0.898795   -0.500483    0.996785
C       0.795468   -2.009072    1.069935
C       1.119094   -2.724273    2.325185
O      -0.231512   -2.541142    1.926306
C       1.000972   -2.762895   -0.230621
C       0.299539   -4.096098   -0.387407
O       1.688924   -2.281072   -1.103122
H       0.754537    1.998761   -0.290157
H      -1.009314    2.104930   -0.359738
H      -0.185635    2.090585    1.204734
H      -1.208581   -0.164419    0.692176
H      -0.274605   -0.246711   -0.798003
H       1.848568   -0.249795    0.512868
H       0.929964   -0.101949    2.017120
H       1.485601   -3.749577    2.300309
H       1.446072   -2.136021    3.181433
H      -0.782519   -3.931136   -0.429534
H       0.637695   -4.571202   -1.308722
H       0.474472   -4.756998    0.465999
