16

C       0.027727    1.389159    0.031980
N       0.260934   -0.039601    0.024037
C      -0.184165   -0.761540    1.206845
C       0.110457   -0.663221   -1.199073
C      -0.078488   -0.127462   -2.441293
O      -0.083517   -1.171590   -3.345337
C       0.079041   -2.266168   -2.589489
N       0.199076   -2.047009   -1.320317
H       0.643863    1.870131   -0.734827
H      -1.026871    1.656760   -0.155625
H       0.317217    1.797009    1.003917
H      -1.276444   -0.709656    1.350663
H       0.102307   -1.808830    1.116908
H       0.298947   -0.333516    2.090418
H      -0.206893    0.858437   -2.846079
H       0.094955   -3.216984   -3.099216
