18

C      -0.025891    1.488489    0.051277
C      -0.049872    0.033855    0.020978
C      -0.065862   -1.169189    0.015528
C      -0.102988   -2.624702   -0.044762
O       0.725380   -3.182051    0.985117
C       0.210020   -4.448157    1.383893
C      -1.270159   -4.411796    1.065858
N      -1.917134   -3.184488    1.573526
C      -1.476339   -3.254415    0.170753
H       0.661581    1.851639    0.823110
H       0.302627    1.904495   -0.907576
H      -1.017236    1.899477    0.271850
H       0.259089   -2.953717   -1.034979
H       0.686948   -5.271555    0.827411
H       0.430233   -4.568281    2.449421
H      -1.833923   -5.333759    0.972246
H      -2.923798   -3.326575    1.609992
H      -2.197158   -3.244938   -0.638954
