13

O      -0.002697   -0.013384    0.138851
C      -0.023466    1.183011   -0.033852
N      -1.152759    1.997014   -0.117695
C      -0.804398    3.382620   -0.003019
C      -0.014470    3.837483    1.211755
C       0.702805    3.401315   -0.053951
N       1.077100    2.024772   -0.193392
H      -2.007467    1.626708    0.265979
H      -1.409232    4.088022   -0.560548
H      -0.020225    4.900773    1.426505
H       0.022765    3.186407    2.078651
H       1.250708    4.121374   -0.650246
H       1.964402    1.676019    0.132058
