19

C      -0.132746    1.527755   -0.039317
C       0.026922    0.020903    0.013698
N       1.111657   -0.552631   -0.888696
C       2.068419   -0.301428    0.254656
C       0.858888   -0.622486    1.180919
C       0.658433   -2.122496    0.867922
C       0.861041   -2.009112   -0.687009
C       0.763980   -0.185921    2.554721
N       0.684897    0.194277    3.644518
H       0.795971    2.071294    0.146248
H      -0.502000    1.820087   -1.026542
H      -0.863155    1.849744    0.709367
H      -0.945904   -0.453342   -0.155272
H       2.930235   -0.971944    0.295700
H       2.397896    0.735009    0.281652
H       1.403121   -2.751338    1.361038
H      -0.335761   -2.473826    1.153452
H      -0.021931   -2.312557   -1.253484
H       1.717344   -2.584143   -1.045583
