19

C      -0.082793    1.531622    0.303049
C      -0.079160    0.025422    0.183800
C       1.112774   -0.703328   -0.383006
C       0.821970   -0.813869    1.094621
O       1.752375   -0.137639    1.904066
C       0.301807   -2.039360    1.638217
C      -0.144288   -3.055232    2.113401
C      -0.697872   -4.265002    2.716359
O      -2.042687   -4.126794    3.158017
H       0.895924    1.899129    0.620580
H      -0.328169    1.996427   -0.657859
H      -0.825715    1.870405    1.033831
H      -1.044618   -0.425844   -0.025664
H       0.957402   -1.578998   -1.001267
H       1.988971   -0.111836   -0.626857
H       1.317989    0.065859    2.740264
H      -0.710397   -5.078855    1.982598
H      -0.038308   -4.591365    3.536729
H      -2.083423   -3.338841    3.709740
