18

C      -0.045917    1.563762    0.034465
C       0.046013    0.038727   -0.023995
C      -1.275355   -0.548094    0.187241
C      -2.377339   -1.003387    0.337944
C       0.788907   -0.654652   -1.170215
C       2.281145   -0.670595   -0.776010
C       2.364510   -0.021776    0.592825
N       1.033167   -0.657620    0.944665
C       1.312168   -1.661721   -0.200734
H       0.867723    2.043704   -0.319951
H      -0.871579    1.905546   -0.595565
H      -0.247074    1.888335    1.060362
H      -3.346061   -1.413373    0.482800
H       0.467161   -0.807648   -2.192725
H       3.049025   -0.837654   -1.521774
H       3.132845   -0.483454    1.218718
H       2.417396    1.064718    0.702994
H       1.267523   -2.737435   -0.121765
