18

C       0.266210    1.240772    0.299252
O      -0.366672    0.156324   -0.355201
C       0.429077   -0.425815   -1.334332
C       1.414636   -1.498818   -0.943270
C       0.129488   -1.854925   -1.645515
C      -1.070010   -2.691127   -1.175557
N      -1.112467   -3.222702   -2.548331
C      -0.066779   -2.461801   -3.027317
O       0.444295   -2.343488   -4.109323
H       1.187696    0.924396    0.807940
H       0.517411    2.045805   -0.406776
H      -0.440121    1.624487    1.038654
H       0.687910    0.226329   -2.170240
H       2.337225   -1.594215   -1.506438
H       1.478685   -1.746409    0.111337
H      -0.854583   -3.446430   -0.413616
H      -1.946711   -2.104260   -0.886985
H      -1.802377   -3.779547   -3.028605
