17

O       0.118179    0.328898   -1.163595
C       0.080401    1.225936   -0.375165
C      -1.017230    1.824469    0.516040
C      -0.104844    3.076392    0.725839
C       0.337660    3.450204    2.156274
C       1.564063    2.600021    2.424312
O       1.343123    1.198458    2.220730
C       2.008775    1.939881    1.183755
C       1.092209    2.322807    0.035241
H      -1.983071    1.979464    0.027922
H      -1.160312    1.233660    1.424984
H      -0.467127    3.939076    0.165808
H       0.614177    4.509243    2.217401
H      -0.450103    3.275351    2.896968
H       2.245231    2.846014    3.236122
H       3.037691    1.646266    0.996152
H       1.639054    2.804147   -0.779201
