16

O      -0.329699    1.262261    0.055263
C       0.027497   -0.104910    0.007947
C       0.698563   -0.442467   -1.266404
N       1.254418   -0.684923   -2.250052
C       0.886440   -0.539302    1.198175
C       0.201016   -0.385956    2.590697
C       0.499330   -1.873758    2.846160
O       0.398675   -2.585922    3.799459
C       1.037526   -2.078276    1.417368
H       0.472437    1.791192   -0.028598
H      -0.924097   -0.649802    0.037369
H       1.854276   -0.032767    1.147965
H       0.655557    0.311460    3.298306
H      -0.870585   -0.166178    2.537088
H       0.370855   -2.689005    0.797961
H       2.043875   -2.497068    1.347639
