16

N       0.047775    1.420421    0.150382
C      -0.043085    0.030999    0.050903
C      -1.159644   -0.783536    0.035179
C      -2.599299   -0.884574    0.044706
C      -2.958627   -2.182664    0.008702
C      -1.728911   -3.074881   -0.027905
N      -0.658208   -2.082942   -0.007245
C       0.688669   -2.000019   -0.005064
N       1.093552   -0.738462    0.025422
H       0.978364    1.731196   -0.098361
H      -0.645836    1.915459   -0.394025
H      -3.273650   -0.040203    0.080922
H      -3.962661   -2.581758    0.008177
H      -1.668431   -3.746182    0.838373
H      -1.682742   -3.696261   -0.931728
H       1.338381   -2.861652   -0.029286
