18

C      -0.007538    1.544470   -0.041704
C       0.000006    0.011965    0.001242
C      -1.420364   -0.560143    0.091778
C       0.735687   -0.548037   -1.233602
O       2.075427   -0.037707   -1.243943
C       2.648014    0.210098   -2.449431
O       3.758202    0.626570   -2.548986
C       0.784486   -2.020765   -1.237774
N       0.816459   -3.175348   -1.245416
H       1.004720    1.950726   -0.089217
H      -0.568637    1.910401   -0.910180
H      -0.492397    1.940195    0.855017
H       0.572061   -0.315564    0.877377
H      -2.020717   -0.268482   -0.777963
H      -1.419681   -1.651570    0.154456
H      -1.920826   -0.171719    0.982818
H       0.209960   -0.224841   -2.143598
H       1.972812   -0.005083   -3.299389
