18

C      -0.032502    1.499061    0.042081
C      -0.047448    0.010314   -0.031951
C      -0.068923   -0.801374   -1.091281
C       0.020923   -2.250327   -0.571976
C      -0.839621   -2.080372    0.716459
C       0.049927   -0.903653    1.216015
C       1.418389   -1.613606    1.162781
C       1.401139   -2.416543    0.099141
H       0.893654    1.861790    0.508559
H      -0.110161    1.953462   -0.949860
H      -0.858074    1.880415    0.656855
H      -0.077789   -0.523838   -2.137419
H      -0.265568   -3.030603   -1.276743
H      -1.872129   -1.785650    0.508612
H      -0.811769   -2.952417    1.376174
H      -0.208116   -0.432591    2.165343
H       2.231984   -1.427742    1.851019
H       2.198872   -3.037698   -0.285722
