20

C      -0.144830    1.511876    0.079488
C       0.032883   -0.011413    0.013290
C       0.618275   -0.461515   -1.365894
C       2.161679   -0.571619   -1.400687
C       2.490937   -1.569321   -0.297149
C       3.738026   -1.624792    0.616590
O       2.887513   -1.387144    1.794083
C       1.829642   -1.090729    0.965208
N       0.810606   -0.405552    1.206188
H       0.812684    2.023373   -0.069043
H      -0.841920    1.856578   -0.691256
H      -0.529444    1.803363    1.059678
H      -0.962379   -0.462711    0.112135
H       0.208665   -1.444869   -1.627814
H       0.269418    0.232519   -2.136772
H       2.503479   -0.892055   -2.389340
H       2.626693    0.398348   -1.187814
H       2.172332   -2.577683   -0.579246
H       4.262276   -2.579614    0.690361
H       4.449175   -0.802252    0.495714
