21

O       0.038331    1.417130    0.100071
C       0.036546   -0.000554    0.012013
C      -1.415806   -0.471457    0.023503
C      -1.552920   -2.013527   -0.118590
C      -2.643978   -2.420472    0.884109
C      -3.840575   -3.261621    0.480738
C      -2.783515   -3.837629    1.386512
C      -2.808745   -1.239228    1.771711
C      -2.144736   -0.176860    1.317450
H       0.950788    1.715949    0.148872
H       0.528371   -0.342759   -0.913577
H       0.572670   -0.455421    0.860802
H      -1.918449    0.045886   -0.806399
H      -1.783504   -2.320681   -1.142288
H      -0.604005   -2.492145    0.155769
H      -4.806938   -3.015474    0.908651
H      -3.884056   -3.614138   -0.544905
H      -2.110615   -4.584238    0.975930
H      -3.029188   -3.989702    2.432803
H      -3.426145   -1.267992    2.663858
H      -2.124481    0.805595    1.772483
