15

N      -0.094192    1.470551    0.038058
C      -0.009942    0.022211   -0.010040
C       0.618048   -0.548433   -1.283413
C       0.369107    0.050352   -2.597358
O       1.603284    0.275493   -1.908859
C       0.783217   -0.458958    1.211216
F       0.185151   -0.120067    2.353951
F       0.898448   -1.802460    1.199957
F       2.020654    0.051693    1.221187
H       0.723587    1.864186   -0.418521
H      -0.917293    1.805023   -0.446825
H      -1.010985   -0.406798    0.110273
H       0.879040   -1.604353   -1.239511
H       0.437946   -0.568291   -3.489964
H      -0.278249    0.921535   -2.680403
