19

C      -0.059990    1.424332    0.049883
C       0.062591   -0.084468   -0.002073
C       0.752745   -0.669457   -1.206683
C       1.442463   -0.659958    0.165290
C       1.451468   -2.210338    0.179242
C       0.756492   -2.217162   -1.221387
C      -0.466734   -2.989038   -0.646339
C       0.203101   -2.922818    0.751833
O      -0.114741   -3.311982    1.836908
H       0.818063    1.907077   -0.392616
H      -0.941843    1.767917   -0.501102
H      -0.149083    1.776688    1.082784
H      -0.785658   -0.603787    0.438684
H       0.962833   -0.054375   -2.074362
H       2.266080   -0.051429    0.519253
H       2.419809   -2.677180    0.361733
H       1.258012   -2.663256   -2.078249
H      -1.459809   -2.540066   -0.732078
H      -0.525462   -4.024717   -0.998624
