19

C       0.135008    1.507994   -0.001306
C       0.014647    0.001713    0.084382
C       1.257695   -0.884118    0.011837
C       0.521775   -0.781429    1.303216
C       1.109650   -0.068650    2.482123
C       2.410498   -0.461635    3.045569
O       2.273922    0.727974    2.264828
C      -1.199477   -0.581966   -0.541377
O      -2.069606    0.053534   -1.083163
H       1.052253    1.861305    0.471284
H       0.133364    1.824838   -1.048243
H      -0.719194    1.991646    0.481919
H       1.200615   -1.810073   -0.550753
H       2.199850   -0.353190   -0.062563
H      -0.089149   -1.635343    1.590226
H       0.385685    0.387693    3.158639
H       2.614324   -0.303416    4.103056
H       2.971429   -1.265125    2.571526
H      -1.257601   -1.695819   -0.474958
