17

O      -0.108212    1.390130    0.073369
C       0.051501    0.010720    0.086510
C       0.862994   -0.815410   -0.989205
C       0.678261   -1.912229    0.098683
C       0.877540   -0.776209    1.142320
N      -0.795633   -2.168175   -0.048820
C      -1.644129   -1.726244    1.073782
C      -1.273305   -0.760118    0.011066
H       0.763320    1.797879    0.052781
H       0.390280   -0.998243   -1.956307
H       1.896696   -0.479148   -1.106815
H       1.266925   -2.826804    0.117830
H       1.919113   -0.447409    1.160784
H       0.514375   -0.876712    2.164701
H      -2.641137   -2.157029    1.036290
H      -1.243397   -1.642603    2.077077
H      -1.997003   -0.430573   -0.729642
