15

C       0.100662    1.433120    0.058998
N       0.007177   -0.029481    0.018431
C      -0.086397   -0.629051   -1.219153
O      -0.097837   -0.055846   -2.272421
O      -0.173103   -2.010218   -1.228390
C      -0.165306   -2.719112   -0.075097
C      -0.075888   -2.159922    1.131095
C       0.019994   -0.712804    1.250637
N       0.111661   -0.017306    2.319919
H       1.026693    1.726697    0.557374
H       0.077990    1.797512   -0.964467
H      -0.733861    1.837142    0.635597
H      -0.240430   -3.782288   -0.267186
H      -0.073449   -2.767092    2.025732
H       0.110279   -0.627412    3.135443
