17

O      -0.012579    1.418304    0.010250
C      -0.003986    0.016413    0.003033
C      -1.457511   -0.468305    0.011474
O      -2.408913    0.278641    0.022479
N      -1.624382   -1.838791    0.005642
C      -2.956085   -2.466060    0.012948
C      -2.583730   -3.975338    0.003225
N      -1.109162   -4.054484   -0.008101
C      -0.675066   -2.859844   -0.005989
H       0.901047    1.718475    0.002890
H       0.495930   -0.396547   -0.889358
H       0.509226   -0.405541    0.883615
H      -3.511725   -2.155600    0.901186
H      -3.525223   -2.147603   -0.863838
H      -2.964849   -4.502323    0.883463
H      -2.977895   -4.494170   -0.876113
H       0.379913   -2.610332   -0.012784
