17

C       0.086248    1.454618    0.008865
C       0.030770    0.003275    0.001946
C      -0.036028   -1.201934   -0.003582
C      -0.094492   -2.648695   -0.010799
O      -1.147195   -3.253603   -0.003896
C       1.253992   -3.352123   -0.027694
C       1.118396   -4.883181   -0.034689
C       2.413777   -5.550288   -0.050828
C       3.494594   -6.076044   -0.064197
H       1.118758    1.818368    0.000251
H      -0.426812    1.865513   -0.867405
H      -0.408830    1.856325    0.899618
H       1.815709   -3.004254   -0.903330
H       1.832608   -3.013719    0.840616
H       0.540580   -5.198466    0.841117
H       0.523720   -5.189016   -0.902524
H       4.440814   -6.557247   -0.076795
