17

O       0.039920    1.339888   -0.262024
C      -0.012998   -0.034488    0.028008
C      -1.472382   -0.524420    0.178935
O      -2.153960   -0.148324   -1.039780
C      -2.712903   -1.297102   -1.678033
C      -2.281264   -2.461295   -0.834033
C      -1.590937   -2.033387    0.214322
C      -2.125604    0.101739    1.335402
C      -2.649481    0.580632    2.304846
H      -0.571718    1.479118   -0.995814
H       0.454544   -0.643405   -0.762116
H       0.535761   -0.194795    0.961211
H      -3.808436   -1.203250   -1.730221
H      -2.339632   -1.358896   -2.710620
H      -2.528590   -3.488082   -1.072026
H      -1.165091   -2.624586    1.013547
H      -3.113103    1.019037    3.153944
