18

C      -0.258050    1.574398    0.046952
C       0.044710    0.074827   -0.018412
C       0.746776   -0.403120   -1.270618
C       1.813686   -1.156738   -0.963372
C       2.681738   -1.842189   -1.923252
O       3.622925   -2.537647   -1.611313
C       1.990935   -1.200604    0.519066
C       2.258308    0.122536    1.147820
N       0.887518   -0.404660    1.109730
H       0.647972    2.177011   -0.060701
H      -0.951210    1.858604   -0.750503
H      -0.721553    1.816957    1.006747
H      -0.916667   -0.455327    0.063713
H       0.415260   -0.160535   -2.275172
H       2.407204   -1.685891   -2.989996
H       2.281496   -2.127000    1.002610
H       2.681236    0.175528    2.146845
H       2.543249    0.935569    0.484817
