16

C      -0.097160   -1.249654   -0.059993
C      -0.039560   -0.050018   -0.030998
C       0.026142    1.404042    0.015657
C      -0.636221    2.027843    1.282900
C       0.205246    3.281926    1.615248
C       1.523657    3.001327    0.948458
C       1.446355    1.981965    0.084471
C       2.503548    1.510589   -0.738804
N       3.351869    1.116135   -1.421750
H      -0.139106   -2.310298   -0.094849
H      -0.454617    1.798342   -0.891575
H      -1.693736    2.244919    1.122451
H      -0.563766    1.306363    2.100300
H      -0.236633    4.198548    1.199321
H       0.304484    3.451663    2.692387
H       2.418377    3.587401    1.121843
