19

C       0.150952    1.499746   -0.135005
C       1.382054    0.644900    0.068193
C       0.024592    0.015751    0.016616
C      -0.700888   -0.771513    1.100072
O      -1.186025   -1.706246    0.106912
C      -0.529113   -1.014874   -0.964553
C      -1.351757   -0.665703   -2.218956
O      -0.389775   -1.315884   -3.075199
C       0.333852   -1.836157   -1.940753
H      -0.186069    2.123646    0.686760
H      -0.009296    1.931988   -1.117593
H       2.046746    0.504343   -0.778223
H       1.885885    0.684918    1.028760
H      -0.066732   -1.264218    1.847585
H      -1.523808   -0.252456    1.607095
H      -2.330968   -1.161848   -2.230918
H      -1.474129    0.396731   -2.461205
H       1.404123   -1.601877   -1.986162
H       0.198243   -2.918087   -1.813475
