20

C       0.236931    1.567390   -0.315134
C       0.010318    0.101983    0.055665
O       0.345174   -0.709242   -1.079592
C       1.376214   -1.636527   -0.750143
C       2.058808   -1.078104    0.496964
C       0.864445   -0.446948    1.227811
C       1.225915    0.549170    2.318403
O       1.916304   -0.168244    3.333543
H       1.295919    1.777030   -0.495410
H      -0.309092    1.792403   -1.235394
H      -0.126188    2.240577    0.468918
H      -1.057555   -0.041212    0.271906
H       0.944867   -2.629700   -0.546604
H       2.041935   -1.730381   -1.614442
H       2.568289   -1.837329    1.092406
H       2.792319   -0.309731    0.224918
H       0.298273   -1.253698    1.709787
H       1.855094    1.353164    1.907356
H       0.311866    1.017738    2.718729
H       2.175409    0.454988    4.018428
