15

O       0.448407    1.032538    0.731116
C       0.067862   -0.193901    0.165271
C      -1.460202   -0.504458    0.060518
N      -2.358616    0.639457    0.041894
C      -2.570140    0.981330   -1.282601
N      -2.116292    0.201162   -2.191552
C      -1.314245   -0.808402   -1.482642
C       0.159056   -0.326462   -1.370951
O       0.999985    0.025877   -2.143964
H       1.069351    1.449225    0.121266
H       0.584378   -1.038593    0.650410
H      -1.811862   -1.288820    0.732100
H      -2.222925    1.369694    0.726279
H      -3.162875    1.863662   -1.506614
H      -1.489260   -1.819826   -1.852569
