20

C      -0.437046    0.960195   -0.038698
C       0.010775   -0.469238    0.063151
C       0.984301   -1.267955   -0.864933
C       0.401909   -2.262484    0.173448
C       0.666524   -1.201748    1.268999
N      -0.977606   -1.645440    0.046381
C      -1.750965   -1.894711   -1.163882
C      -3.104511   -1.209943   -1.052583
O      -3.724198   -0.771136   -1.986399
H       0.420564    1.635588    0.043449
H      -0.927165    1.156043   -0.998486
H      -1.142424    1.201382    0.762828
H       0.694928   -1.398262   -1.907984
H       2.048515   -1.028456   -0.787017
H       0.533272   -3.344029    0.233198
H       1.709273   -0.960986    1.482062
H       0.046928   -1.281649    2.162863
H      -1.302519   -1.611784   -2.126799
H      -1.956672   -2.975438   -1.210114
H      -3.487113   -1.155952   -0.009070
