18

C      -0.075365    1.553283    0.077776
C       0.060541    0.028446    0.017394
C       0.782480   -0.444811   -1.248316
N       0.728631   -0.477254    1.211575
N       2.024530   -0.123442    1.516850
C       2.282253   -0.746435    2.622780
N       1.215160   -1.489931    3.052932
C       0.165616   -1.333456    2.137779
O      -0.943657   -1.826850    2.163437
H       0.910997    2.025397    0.099355
H      -0.614684    1.918515   -0.801095
H      -0.625187    1.860872    0.971648
H      -0.932186   -0.429748    0.065628
H       1.802053   -0.050037   -1.278323
H       0.833658   -1.536640   -1.283159
H       0.250162   -0.096364   -2.138204
H       3.223630   -0.689334    3.145916
H       1.148071   -2.063846    3.875016
