20

C      -0.049137    1.373302    0.023159
O      -0.053208   -0.034107    0.024826
C       0.734877   -0.586079    1.059239
C       0.681662   -2.083572    0.943335
C       1.148467   -3.004806   -0.179167
N       0.600362   -4.031673    0.807767
C       1.122995   -3.161816    1.984985
C      -0.238454   -3.216107    2.684265
C      -0.531656   -3.039393    1.191784
H       0.964903    1.779564   -0.120227
H      -0.681361    1.701646   -0.805389
H      -0.451668    1.784950    0.962606
H       1.779400   -0.235652    0.979427
H       0.362465   -0.263050    2.047831
H       0.604141   -2.975454   -1.127888
H       2.225807   -3.101846   -0.354560
H       2.126465   -3.326083    2.383822
H      -0.515473   -4.181314    3.115866
H      -0.495470   -2.387053    3.347949
H      -1.480450   -3.051930    0.653522
