16

C       0.018667    1.439061    0.110787
C      -0.069559   -0.037843   -0.215145
O      -1.303815   -0.536175    0.353188
C      -1.545842   -1.829932    0.171868
C      -2.633022   -2.476816   -0.265291
N      -2.341005   -3.845469   -0.124154
C      -1.074719   -4.022577    0.366687
O      -0.459695   -5.026044    0.600953
O      -0.577035   -2.735212    0.562353
H       0.941263    1.855831   -0.303365
H      -0.829691    1.982640   -0.313856
H       0.023098    1.594518    1.192993
H      -0.088241   -0.213618   -1.298484
H       0.770438   -0.595357    0.210559
H      -3.570316   -2.104695   -0.635644
H      -2.935278   -4.618883   -0.362098
