18

N       0.346918    0.463469    1.520993
C       0.163838    0.065918    0.227845
O       0.948371    0.360182   -0.656548
C      -1.052257   -0.810894   -0.013567
C      -1.654142   -0.814819   -1.451490
C      -1.543565   -2.362985   -1.494950
O      -0.380997   -2.834926   -2.191474
C       0.409993   -2.799522   -0.975830
C      -0.803710   -2.352291   -0.131262
H       1.151431    1.028821    1.738308
H      -0.317743    0.265686    2.247349
H      -1.818794   -0.621163    0.743865
H      -2.664493   -0.405579   -1.520490
H      -1.005892   -0.336371   -2.187160
H      -2.440606   -2.942245   -1.728489
H       0.788278   -3.797203   -0.723134
H       1.241863   -2.092397   -1.044263
H      -1.063597   -2.968870    0.728559
