20

C      -0.050956    1.402943   -0.232755
C       1.256606    0.720866   -0.017326
C       2.053516    0.825605    1.287276
C       1.444262    1.776180    2.321243
O       0.319748    1.069287    2.853478
C       0.409315   -0.310732    2.451962
C       1.876113   -0.504694    2.049946
C      -0.494707   -0.587873    1.239485
N      -0.007883   -0.044179   -0.038702
H      -0.454241    2.011465    0.571966
H      -0.335360    1.728625   -1.231106
H       1.876245    0.529500   -0.892004
H       3.094592    1.073310    1.068676
H       2.165848    1.993019    3.122355
H       1.106652    2.727541    1.899414
H       0.091143   -0.926132    3.299079
H       2.037170   -1.389083    1.429479
H       2.529187   -0.556419    2.925823
H      -0.572117   -1.676870    1.121865
H      -1.502691   -0.207415    1.435550
