16

O      -0.329350    0.194005    0.164713
C       0.005236    1.292032   -0.189440
C       1.423008    1.855819   -0.037915
N       1.725917    2.794032   -1.123267
C       2.206902    4.073751   -0.593204
C       1.400374    5.239407   -1.177715
O       1.842513    6.338998   -1.373801
C       1.951053    3.943105    0.890234
C       1.519789    2.722941    1.195717
H      -0.697363    2.018115   -0.657321
H       2.107586    0.996546    0.022588
H       2.325559    2.403931   -1.834893
H       3.267930    4.279594   -0.799372
H       0.343676    4.963644   -1.394733
H       2.122133    4.760792    1.578446
H       1.270729    2.351930    2.181535
