15

O      -0.349963    1.331114    0.052801
C      -0.057678   -0.064154    0.016995
C       0.754223   -0.410311   -1.154336
C       1.446016   -0.668143   -2.103237
C       0.597831   -0.558925    1.306417
C       1.562283    0.309697    2.066990
C       0.187583    0.029454    2.627441
H       0.444037    1.800163   -0.224536
H      -1.036229   -0.553020   -0.077800
H       2.044982   -0.903404   -2.948279
H       0.814934   -1.622788    1.284644
H       2.423837   -0.162031    2.525403
H       1.746500    1.313487    1.700074
H      -0.524502    0.846137    2.602078
H       0.096294   -0.634465    3.479726
