23

C       0.319785    1.748792   -0.761521
O      -0.359578    0.518642   -0.656124
C       0.430264   -0.582591   -1.014533
C       1.518078   -1.082684   -0.010969
C       0.981841   -2.502697   -0.251452
C       1.784847   -3.656837   -0.787175
C       1.152494   -3.733723    0.587103
C       2.010405   -3.715304    1.832803
C      -0.296241   -1.938920   -0.887563
H       1.188157    1.800630   -0.087315
H       0.672440    1.931662   -1.789203
H      -0.385663    2.536349   -0.485479
H       0.858682   -0.437161   -2.018316
H       2.565461   -0.883405   -0.252027
H       1.302560   -0.718913    0.999794
H       1.360179   -4.254260   -1.588411
H       2.864650   -3.545222   -0.840057
H       0.271762   -4.369380    0.657893
H       2.874918   -3.055181    1.707366
H       1.446302   -3.358843    2.702347
H       2.389246   -4.715835    2.069539
H      -1.120299   -1.856687   -0.171492
H      -0.662426   -2.402039   -1.807339
