18

C      -1.417901    1.032406   -0.835680
C      -0.299160    0.195207   -0.215533
O      -0.735737   -1.082799    0.251453
C      -1.310324   -1.118277    1.530473
C      -2.741202   -0.751070    1.562563
N      -3.862471   -0.475497    1.600503
C       0.850180   -0.024588   -1.220740
C       1.439775   -1.411498   -1.336272
O       1.254498    0.915971   -1.862291
H      -0.978350    1.924599   -1.285683
H      -1.927720    0.459256   -1.615386
H      -2.156155    1.332855   -0.089846
H       0.150133    0.747251    0.627767
H      -1.221393   -2.147898    1.892749
H      -0.772065   -0.468485    2.237012
H       1.796452   -1.758909   -0.361258
H       0.670217   -2.123439   -1.650466
H       2.258976   -1.393953   -2.055445
