22

C       0.660011   -0.352650   -1.697679
C       0.291552   -0.184481   -0.223536
N      -1.029594   -0.777954    0.018076
C      -1.632241   -0.812658    1.407904
C      -2.615363   -1.865812    0.829202
C      -1.186666   -2.252969    0.354974
C      -0.738395   -2.037679    1.825702
O       0.624755   -1.914345    2.094024
C       0.894965   -1.554261    3.432697
H       1.604738    0.153628   -1.920662
H       0.783315   -1.410951   -1.953173
H      -0.122104    0.059297   -2.341791
H       1.090908   -0.578849    0.410414
H       0.189990    0.884962    0.004545
H      -1.868708    0.099482    1.959285
H      -3.118345   -2.535199    1.528996
H      -3.262921   -1.489691    0.040331
H      -0.894195   -3.047148   -0.333297
H      -1.200169   -2.712369    2.566049
H       1.979936   -1.559940    3.557691
H       0.513189   -0.551558    3.673576
H       0.450110   -2.272846    4.138409
