20

C      -0.439864    1.295991   -0.041807
O      -0.196579   -0.089775   -0.076831
C       0.791289   -0.447679   -1.019088
C       0.955054   -1.943740   -0.966418
N       0.150743   -2.751304   -1.894413
C       1.618241   -2.753785   -2.024232
C       2.192943   -2.187274   -3.310930
C       2.054006   -3.180259   -4.447894
O       2.959111   -3.553487   -5.148929
H       0.465258    1.863792    0.227907
H      -0.803154    1.672200   -1.011236
H      -1.206985    1.474231    0.715477
H       0.494799   -0.129249   -2.029967
H       1.748846    0.047669   -0.777611
H       1.065623   -2.314531    0.051314
H      -0.179318   -3.600499   -1.445295
H       2.145852   -3.637091   -1.665990
H       1.634368   -1.287645   -3.594360
H       3.249082   -1.924933   -3.198369
H       1.016893   -3.557892   -4.590456
