12

C       0.077633    1.468110    0.014620
C      -0.001622   -0.020374   -0.027095
N      -0.107374   -0.659686   -1.143013
C      -0.172355   -2.036782   -1.057745
N      -0.141554   -2.778450   -0.006366
O      -0.027642   -2.101559    1.205352
C       0.046915   -0.731945    1.277162
O       0.145100   -0.201047    2.349318
H       1.003888    1.781024    0.508708
H       0.031962    1.874748   -0.995465
H      -0.739020    1.870645    0.623714
H      -0.261414   -2.581312   -1.991876
