23

C       0.016403    1.557297   -0.045882
C       0.016356    0.027213   -0.006682
C       0.720704   -0.535334    1.232071
C       0.748199   -2.066648    1.275752
O       1.444612   -2.507734    0.117216
C       1.783029   -3.882619    0.154195
C       2.790365   -4.170554    1.269809
C       2.323790   -3.521752    2.546287
C       1.375908   -2.587637    2.544607
H       1.038211    1.953041   -0.055125
H      -0.492812    1.933102   -0.938964
H      -0.491582    1.979880    0.828775
H      -1.018031   -0.341583   -0.030985
H       0.505081   -0.371447   -0.901294
H       1.755656   -0.173256    1.273906
H       0.221443   -0.174436    2.140933
H      -0.298136   -2.429951    1.225262
H       0.878305   -4.494539    0.305508
H       2.192198   -4.124376   -0.831019
H       2.896457   -5.254673    1.405091
H       3.784532   -3.795973    0.989942
H       2.773889   -3.847915    3.480343
H       1.014414   -2.152631    3.473129
