19

C       0.229007    1.557722    0.339967
O       1.544451    1.457277   -0.271103
C       1.327368    0.084618   -0.619920
C       1.868878   -0.431462   -1.945383
C       2.624089   -1.733981   -1.570184
C       1.932336   -2.250903   -0.286042
C       1.604201   -0.964669    0.483516
O       0.239504   -0.862655    0.981902
C      -0.102581    0.098994   -0.027510
H       0.273396    1.755819    1.415952
H      -0.376826    2.322664   -0.160455
H       1.055197   -0.631433   -2.650475
H       2.517341    0.319041   -2.405378
H       2.624606   -2.474955   -2.373586
H       3.671837   -1.497437   -1.352575
H       0.992188   -2.756684   -0.531137
H       2.550630   -2.953454    0.278423
H       2.339075   -0.702480    1.251261
H      -1.042923   -0.122286   -0.536580
