21

C       0.167135    1.674876   -0.408282
C       0.217418    0.181628   -0.193627
O      -0.922623   -0.509301   -0.654473
C       1.475529   -0.630959   -0.317998
O       2.608486    0.068028    0.199229
C       2.064669   -0.032113    1.569482
C       2.837376   -1.115886    2.318347
C       2.108509    1.287351    2.326012
C       0.745980   -0.578005    1.011878
H       1.150422    2.124366   -0.265812
H      -0.140990    1.879510   -1.441669
H      -0.556604    2.158491    0.255282
H      -0.971181   -0.385413   -1.609325
H       1.633615   -1.429712   -1.035224
H       3.876367   -0.803862    2.461900
H       2.392223   -1.297123    3.302871
H       2.830729   -2.053815    1.757416
H       1.525736    2.069491    1.841029
H       1.715379    1.146832    3.338346
H       3.144402    1.631882    2.413607
H       0.125296   -1.325256    1.488920
