16

N      -0.119558    1.276308    0.113651
C      -0.028446    0.022307   -0.031709
O       1.173696   -0.623672   -0.090218
C       1.237350   -1.805037   -0.905297
C       0.259517   -2.886073   -0.454094
C      -1.135983   -2.299520   -0.287825
N      -1.420839   -1.765083    1.046786
C      -1.253273   -0.825908   -0.089044
H       0.815020    1.691090    0.136699
H       1.041443   -1.524424   -1.949481
H       2.273225   -2.143888   -0.834679
H       0.257168   -3.690047   -1.197694
H       0.583480   -3.311171    0.500235
H      -1.944795   -2.790403   -0.822754
H      -2.411361   -1.843942    1.262594
H      -2.129710   -0.299109   -0.448886
