19

C      -0.094685   -1.203534   -0.156185
C      -0.038779   -0.006521   -0.057739
C       0.034885    1.439631    0.078245
C      -0.562800    1.996088    1.397207
C      -0.030846    3.436247    1.435915
C       1.377330    3.331515    0.845642
C       2.220793    4.500703    0.578068
O       2.480188    3.653519    1.701176
C       1.478955    2.010204    0.076572
H      -0.145561   -2.260153   -0.246866
H      -0.516682    1.896030   -0.755497
H      -1.652564    1.927111    1.421832
H      -0.171200    1.416906    2.240278
H      -0.652387    4.082925    0.804312
H      -0.002328    3.873044    2.436598
H       2.963490    4.463063   -0.218810
H       1.856068    5.499496    0.819609
H       2.146433    1.338943    0.625218
H       1.880121    2.124766   -0.933080
