21

O      -0.101155    1.431853    0.089634
C      -0.022279    0.015201    0.113669
C      -1.435292   -0.534916   -0.022412
C      -1.471364   -2.067150   -0.038442
C      -2.865500   -2.619136   -0.092319
C      -4.032087   -2.323536   -1.079954
C      -4.569370   -3.146375    0.110660
C      -3.352108   -4.091241    0.010098
O      -3.794534   -2.283618    1.029608
H       0.786176    1.784810    0.201276
H       0.606552   -0.362895   -0.710303
H       0.427045   -0.344457    1.054193
H      -2.046265   -0.162322    0.805957
H      -1.876091   -0.137279   -0.943926
H      -0.914039   -2.456945   -0.900647
H      -0.982276   -2.467634    0.859238
H      -4.364564   -1.285457   -1.112022
H      -4.002480   -2.796109   -2.065586
H      -5.599172   -3.371061    0.386841
H      -3.259965   -4.727511   -0.874414
H      -3.083740   -4.601999    0.936097
