23

C       0.251752    1.336649    0.176552
C       0.122671   -0.172956    0.412051
C      -1.313061   -0.661717    0.306642
C      -1.934098   -0.912956   -1.099677
O      -1.037635   -2.082735   -1.258796
C      -1.589636   -2.179908    0.115109
C      -2.993112   -1.876818   -0.483189
C      -4.198942   -1.425624    0.329392
C      -5.312183   -0.854456   -0.558361
H       1.291109    1.664287    0.275838
H      -0.087659    1.612728   -0.827716
H      -0.346514    1.907662    0.895834
H       0.735505   -0.722931   -0.307258
H       0.505246   -0.418003    1.411752
H      -1.962906   -0.149240    1.022139
H      -2.022976   -0.237166   -1.952133
H      -1.263175   -3.025273    0.724106
H      -3.272042   -2.645736   -1.210190
H      -4.583634   -2.292912    0.881646
H      -3.920403   -0.685232    1.085886
H      -6.190216   -0.580762    0.034333
H      -4.975054    0.042226   -1.089311
H      -5.630712   -1.583324   -1.311432
