17

C      -0.039532    1.469306   -0.047416
C      -0.043070   -0.020314   -0.012559
O       0.858447   -0.730089   -0.868583
C       0.004496   -1.912818   -0.790652
C       0.579796   -2.805270    0.296452
O       0.538483   -1.987530    1.477281
C      -0.338521   -0.919345    1.207489
C      -1.102917   -1.092550   -0.068771
O      -2.456125   -1.068788   -0.316502
H       0.929980    1.859510    0.279859
H      -0.234752    1.833953   -1.060743
H      -0.811994    1.866844    0.617109
H      -0.192820   -2.361496   -1.764672
H      -0.023501   -3.717856    0.432076
H       1.619490   -3.084437    0.103573
H      -0.784528   -0.471983    2.088666
H      -2.896960   -1.645016    0.318384
