19

C       0.077231    1.552416    0.042016
C      -0.008478    0.020355    0.010391
C       0.623376   -0.541768   -1.283776
C       0.717402   -2.060108   -1.303531
O       2.007293   -2.635846   -1.053631
C       1.008084   -2.770950   -0.048447
C       1.159591   -1.964458    1.214684
O       2.039850   -0.841374    1.174532
C       0.633975   -0.587103    1.244315
H       1.122363    1.879084    0.054993
H      -0.402750    1.989736   -0.839323
H      -0.415424    1.961797    0.929940
H      -1.070542   -0.267003    0.038737
H       0.040886   -0.192871   -2.142177
H       1.635343   -0.139804   -1.388858
H       0.150868   -2.581814   -2.073994
H       0.639097   -3.786139    0.100083
H       1.203525   -2.536246    2.141115
H       0.297044   -0.183406    2.200646
