23

C       0.381389    1.589608   -0.266928
C       0.093941    0.107816   -0.069106
C       0.801859   -0.898725   -1.015044
C       1.157426   -1.796534    0.203635
C       2.617153   -2.251950    0.309604
C       3.550271   -1.094891    0.561949
C       3.180912   -0.042338    1.291724
C       1.826139    0.047471    1.947983
C       0.694710   -0.650473    1.168622
H       1.457391    1.793561   -0.268031
H      -0.019508    1.932209   -1.227743
H      -0.077320    2.202486    0.517625
H      -0.990207   -0.048538   -0.090249
H       0.190546   -1.355894   -1.797975
H       1.693891   -0.467246   -1.480110
H       0.494837   -2.664290    0.269211
H       2.718072   -2.988125    1.121754
H       2.902455   -2.782170   -0.607700
H       4.551199   -1.144016    0.141291
H       3.881352    0.769302    1.472933
H       1.896537   -0.415525    2.943653
H       1.560810    1.093832    2.137704
H      -0.074044   -0.958987    1.882798
