13

N       0.050369    1.350315    0.121510
C      -0.022208   -0.007958    0.045298
C      -1.211294   -0.702549    0.024366
C      -1.226664   -2.131882   -0.009264
O      -2.169574   -2.897809   -0.029368
N       0.105807   -2.676457   -0.021488
C       1.195388   -1.897240   -0.007436
F       2.335873   -2.561248   -0.032318
N       1.217707   -0.617879    0.024273
H       0.945005    1.765868   -0.078496
H      -0.768504    1.898602   -0.077301
H      -2.166233   -0.194682    0.039254
H       0.189263   -3.683391   -0.047458
