18

O      -0.331626    0.023118   -0.256396
C       0.022421    1.158630   -0.070280
C       1.432647    1.670881   -0.289804
C       1.434514    2.880523   -1.207214
N       1.040810    4.166905   -0.612699
C       2.413764    4.001803   -1.113928
C       3.517201    4.067910   -0.109836
C       4.922259    3.925115   -0.513629
O       4.376805    5.208224   -0.208132
H      -0.690163    1.936995    0.283328
H       1.833098    1.956268    0.690049
H       2.044198    0.859770   -0.695747
H       1.073210    2.667832   -2.212828
H       0.480919    4.717996   -1.256473
H       2.673721    4.487556   -2.053224
H       3.237904    3.809771    0.910416
H       5.652431    3.540694    0.196946
H       5.165078    3.758255   -1.562680
