19

C       0.224704    1.461715    0.019028
C       0.098793   -0.024704   -0.056324
C      -0.020327   -0.878684   -1.139149
C      -0.149394   -2.205799   -0.620026
C      -0.095800   -2.125597    0.748077
N       0.051947   -0.800454    1.077969
C      -0.054477   -0.508993   -2.577226
C       1.065010    0.239266   -3.211555
N       0.854824   -1.182265   -3.531573
H       1.086713    1.772457    0.622674
H       0.353710    1.875074   -0.982972
H      -0.665631    1.931163    0.456909
H      -0.265091   -3.107772   -1.201830
H      -0.143904   -2.886984    1.509746
H       0.127502   -0.444360    2.015074
H      -1.045501   -0.360889   -3.005279
H       0.867790    0.926115   -4.030240
H       1.910844    0.508410   -2.585048
H       1.519274   -1.738437   -2.997133
