17

C      -0.056466    1.544317   -0.000639
C      -0.011213    0.036786   -0.011538
C      -0.343440   -0.676041   -1.336853
N      -0.637319   -2.064541   -0.933219
C      -0.738594   -2.000536    0.328573
O      -0.189774   -2.897782    1.193594
C       1.064568   -2.154266    1.378502
C       0.663555   -0.658922    1.187587
N      -0.800707   -0.700766    0.989084
H       0.745475    1.954421   -0.623876
H      -1.011718    1.900422   -0.400338
H       0.057570    1.945623    1.009464
H      -1.192714   -0.167652   -1.814728
H       0.475916   -0.699858   -2.063147
H       1.403085   -2.328529    2.401742
H       1.802377   -2.523111    0.661045
H       1.027031    0.016761    1.959276
