18

O      -0.635110    0.579500    0.021773
C      -0.108869    1.662220    0.053098
C       1.385270    1.894443   -0.003152
C       1.796517    2.777682   -1.227201
C       2.212605    4.133191   -0.676841
C       1.216858    4.889248    0.167213
C       2.281838    4.051409    0.830065
C       1.911046    2.642372    1.266552
H      -0.727818    2.587369    0.128525
H       1.833742    0.901264   -0.077434
H       2.641762    2.308291   -1.740002
H       0.988187    2.852503   -1.964885
H       2.940389    4.705802   -1.241068
H       1.328543    5.966715    0.220542
H       0.183236    4.558266    0.196775
H       3.061013    4.563296    1.383930
H       1.173946    2.633037    2.078795
H       2.797279    2.124468    1.646148
