20

C       0.004501    1.573628    0.072039
C       0.122298    0.053516    0.100908
N       0.547998   -0.455617   -1.203957
C       0.640026   -1.909695   -1.286170
C       0.867642   -2.381808   -2.738637
C      -0.330838   -2.128444   -3.657744
C       1.753519   -2.377642   -0.438590
N       2.617209   -2.768289    0.222067
H       0.956780    2.028185   -0.214533
H      -0.756951    1.899093   -0.646630
H      -0.283953    1.956403    1.055058
H       0.875349   -0.246291    0.838602
H      -0.834719   -0.392216    0.430787
H      -0.102737   -0.137644   -1.914287
H      -0.268731   -2.413564   -0.900191
H       1.761202   -1.880469   -3.123990
H       1.086357   -3.453854   -2.712323
H      -1.243418   -2.584748   -3.258639
H      -0.524327   -1.061594   -3.810637
H      -0.147833   -2.561488   -4.645220
