18

O      -0.078128    1.458808    0.081167
C       0.000026    0.037847    0.040826
C       0.838364   -0.538253    1.192420
C       0.575915   -2.036656    1.331626
O      -0.767112   -2.277133    1.721941
C      -1.733644   -1.730227    0.868583
C      -2.319834   -0.395618    1.237456
C      -1.408967   -0.512885    0.033791
H       0.819466    1.804267    0.027890
H       0.472755   -0.281748   -0.903620
H       1.903710   -0.351679    1.007939
H       0.572508   -0.036339    2.129414
H       0.806782   -2.554132    0.385316
H       1.196320   -2.479625    2.115608
H      -2.383187   -2.489419    0.438743
H      -3.373683   -0.211291    1.061008
H      -1.920264    0.070954    2.130400
H      -1.899530   -0.453316   -0.932742
