17

C      -0.031533    1.598480    0.008263
C       1.484043    1.256325    0.007842
C       1.718551    0.624894    1.439674
C       0.549916   -0.352437    1.319285
C       0.372315   -1.838683    0.935152
C      -0.914924   -1.068495    0.541453
O      -0.850237   -0.354527    1.857614
C      -0.028914    0.073216   -0.018299
O       1.169204    0.096451   -0.859194
H      -0.470975    2.102525    0.869245
H      -0.338124    2.045068   -0.937917
H       2.244994    1.909016   -0.418466
H       2.683618    0.122655    1.530884
H       1.619531    1.361096    2.240499
H       1.007617   -2.220069    0.135223
H       0.242854   -2.532383    1.766191
H      -1.896050   -1.440048    0.244480
