19

C      -0.064010    1.539624   -0.006860
C      -0.059961    0.013062   -0.109631
C       0.831834   -0.515029   -1.242273
O       2.180092   -0.064152   -1.097011
C       0.754227   -2.021573   -1.371851
C      -0.271502   -2.657775   -2.278150
C       1.190285   -2.690989   -2.647068
H       0.954660    1.918088    0.110124
H      -0.484029    1.993070   -0.911742
H      -0.661250    1.879955    0.844461
H       0.287834   -0.425068    0.837752
H      -1.078602   -0.363876   -0.263004
H       0.502160   -0.067673   -2.189942
H       2.550102   -0.503732   -0.323398
H       0.968031   -2.556240   -0.447058
H      -0.746557   -3.577039   -1.954087
H      -0.923157   -1.999888   -2.844557
H       1.527703   -2.050191   -3.454807
H       1.717423   -3.636278   -2.581298
