17

C       1.137390   -0.337943   -0.255281
N      -0.030169   -0.160965    0.613303
C      -0.231245    1.234130    1.010575
C      -1.190481   -0.789703    0.144827
C      -2.145070   -0.518295   -0.818688
O      -2.195970    0.550648   -1.641202
N      -3.072784   -1.498356   -0.837089
N      -2.757581   -2.399226    0.069035
N      -1.640079   -1.974122    0.656774
H       2.030987    0.012961    0.270820
H       1.267712   -1.398446   -0.483782
H       1.053453    0.215030   -1.204681
H      -0.446173    1.898100    0.159002
H      -1.062892    1.295819    1.716483
H       0.673392    1.594101    1.510767
H      -2.995686    0.451902   -2.173799
H      -1.219985   -2.508582    1.401753
