23

C       0.543301    1.392598   -0.363177
C      -0.050275    0.212716    0.409241
C       0.785895   -0.205931    1.620088
C       0.116756   -1.322074    2.425191
O       2.055652   -0.630609    1.112137
C       3.143964   -0.593193    2.022027
C       4.322617   -1.279490    1.327872
C       3.482239    0.780016    2.427989
C       3.768293    1.900641    2.756876
H       1.550980    1.154137   -0.711481
H      -0.072224    1.643406   -1.232490
H       0.610891    2.285273    0.268401
H      -1.059793    0.459031    0.760000
H      -0.151677   -0.656626   -0.252945
H       0.938494    0.672388    2.265465
H      -0.850307   -0.986970    2.813765
H      -0.049024   -2.200431    1.793152
H       0.725953   -1.627708    3.281240
H       2.895435   -1.161753    2.932435
H       5.193787   -1.302677    1.987045
H       4.042469   -2.302066    1.063355
H       4.584312   -0.738055    0.415610
H       4.019002    2.890644    3.048707
