11

F       0.162587    0.086445    0.083386
C      -0.034386    1.411270    0.011362
F       1.172366    1.983898   -0.120708
F      -0.745050    1.665162   -1.082296
C      -0.707220    1.917817    1.256693
N      -1.981860    2.219513    1.249379
O      -2.266551    2.617049    2.541581
C      -1.150711    2.542048    3.284474
C      -0.110501    2.103790    2.532943
H      -1.253633    2.835335    4.317373
H       0.912983    1.941545    2.823440
