19

C      -0.244269    1.514042   -0.100145
C      -0.045081    0.001154   -0.073541
C       1.225549   -0.493467   -0.830016
C       1.964266   -0.569816    0.533856
C       0.584474   -0.541381    1.245836
N       2.856583   -1.675167    0.784142
C       4.149779   -1.531051    1.184826
O       4.712299   -0.474942    1.381107
H       0.667119    2.046661    0.194522
H      -0.517451    1.857131   -1.103872
H      -1.041224    1.817912    0.587117
H      -0.972749   -0.494796   -0.371427
H       1.081637   -1.489205   -1.262198
H       1.651062    0.160982   -1.595528
H       2.543208    0.331959    0.733352
H       0.495884    0.074512    2.144837
H       0.234964   -1.552500    1.479237
H       2.507078   -2.612568    0.655856
H       4.647099   -2.513121    1.316331
