19

C      -0.068304    1.640058   -0.347561
C      -0.098612    0.163951   -0.686393
C      -0.535858   -0.851237    0.280417
O      -1.388827   -0.437338   -0.788833
C       1.285287    2.082505    0.117697
C       1.992840    1.802853    1.459599
C       2.784121    3.144842    1.269502
C       2.043030    3.335348   -0.060328
O       2.329016    2.185241   -0.867936
H      -0.343671    2.218877   -1.236621
H      -0.818340    1.843522    0.425393
H       0.601627   -0.142019   -1.464298
H      -0.156687   -1.869629    0.210278
H      -0.853584   -0.542484    1.275953
H       1.318488    1.833865    2.319132
H       2.580144    0.882403    1.488942
H       2.524303    3.894087    2.020920
H       3.870701    3.071699    1.185380
H       1.788828    4.251403   -0.582547
