18

C      -0.018311    1.633153    0.054983
C       0.144647    0.116723    0.021663
C       0.903480   -0.456832   -1.201083
C       1.581337   -1.737930   -0.646428
N       1.722668   -1.441583    0.765053
C       0.926645   -0.430674    1.228311
O       0.841605   -0.048285    2.373537
C      -0.021003   -0.740545   -2.360844
O       0.037276   -0.213120   -3.440029
H       0.950767    2.132637   -0.043209
H      -0.664834    1.982010   -0.755219
H      -0.455047    1.932344    1.010852
H      -0.849270   -0.353155    0.082428
H       1.663184    0.255373   -1.534282
H       0.954729   -2.626779   -0.817816
H       2.549607   -1.916507   -1.122915
H       2.229969   -2.029082    1.407528
H      -0.811985   -1.494654   -2.129104
