23

C       0.203426    1.587611   -0.483273
O      -0.266113    0.269976   -0.643476
C       0.711839   -0.637386   -1.100806
C       1.817748   -1.006243   -0.076354
C       2.132759   -2.432052   -0.459760
C       1.191423   -2.953318   -1.244584
C       0.053308   -1.988117   -1.520075
C      -1.159927   -2.333455   -0.631158
C      -0.377129   -1.966173   -2.994164
H       0.969235    1.665936    0.302738
H       0.630884    1.982923   -1.418754
H      -0.652273    2.205092   -0.198513
H       1.206791   -0.214070   -1.991565
H       2.687491   -0.342279   -0.129359
H       1.427262   -0.939536    0.949201
H       3.014230   -2.954676   -0.104330
H       1.181390   -3.969862   -1.625384
H      -0.894588   -2.324619    0.429638
H      -1.968547   -1.613864   -0.782821
H      -1.533457   -3.333430   -0.876724
H      -0.836849   -2.916606   -3.286835
H      -1.112524   -1.172606   -3.164751
H       0.477115   -1.788386   -3.655709
