14

O      -0.107021    1.384612    0.043158
C      -0.068991    0.004469   -0.009839
C      -1.371298   -0.743465    0.050217
N      -2.543163   -0.031101   -0.361642
C      -2.325695    0.462703   -1.624265
N      -1.275091    0.047324   -2.239027
C      -0.541474   -0.734285   -1.271729
C       0.216355   -1.860644   -1.738518
N       0.844868   -2.770982   -2.075812
H       0.406852    1.736371   -0.693310
H       0.765157   -0.479389    0.495167
H      -1.503833   -1.605323    0.692691
H      -3.131913    0.442784    0.304419
H      -3.050228    1.135238   -2.069851
