16

C      -0.052258    1.382290   -0.052481
C      -0.197653   -0.097105    0.256209
O       0.833856   -0.468620    1.155807
C       0.794148   -1.813693    1.508952
C       1.921817   -2.132646    2.467720
O       2.739151   -1.344831    2.872116
C       1.999810   -3.589398    2.943083
O       1.228787   -4.444712    2.594048
H       0.921550    1.584774   -0.506536
H      -0.834697    1.703233   -0.746347
H      -0.133297    1.974299    0.863174
H      -1.182701   -0.307875    0.704850
H      -0.127513   -0.697616   -0.666019
H      -0.156663   -2.099971    1.995146
H       0.888253   -2.487331    0.637311
H       2.843435   -3.767949    3.642771
