23

C       0.024322    1.475669   -0.051960
C      -0.054470   -0.034850    0.023683
C      -0.852795   -0.661835    1.140197
C       0.659947   -0.769650    1.141136
C       1.396243   -2.060162    0.769220
C       1.327719   -2.352519   -0.740044
C       1.581420   -1.052324   -1.560582
C       0.068442   -0.739216   -1.328812
C      -0.136345   -2.277660   -1.249708
H       0.924764    1.802131   -0.585992
H      -0.841748    1.890927   -0.581809
H       0.049383    1.923612    0.946572
H      -1.297832    0.009567    1.868222
H      -1.445290   -1.549618    0.953650
H       1.161593   -0.158042    1.885752
H       2.449645   -1.957661    1.057456
H       1.004608   -2.917013    1.333586
H       1.913245   -3.240434   -0.992095
H       2.313549   -0.335303   -1.177007
H       1.802104   -1.275708   -2.607864
H      -0.477696   -0.198342   -2.106842
H      -0.228033   -2.700423   -2.254309
H      -0.935265   -2.687667   -0.628019
