14

O      -0.120050   -0.212583    0.002447
C      -0.071878    0.984630    0.005222
C       1.172678    1.864389    0.000592
C       2.418467    1.118005   -0.015329
C       3.460111    0.522879   -0.028538
O      -1.174083    1.779060    0.013913
C      -2.412263    1.059621    0.020112
C      -3.500135    2.034891    0.030823
N      -4.383886    2.777280    0.039340
H       1.099669    2.533584   -0.865774
H       1.114575    2.520597    0.878045
H       4.376578   -0.013622   -0.040346
H      -2.486077    0.418728   -0.864272
H      -2.473853    0.412842    0.901129
