14

N      -0.066342    1.238272    0.332622
C      -0.016775    0.036137   -0.021511
O       1.126122   -0.668607   -0.321778
C       0.809018   -1.941100   -0.881068
C      -0.688604   -2.097211   -0.620192
C      -1.145378   -1.929847    0.786332
N      -1.182818   -0.784303   -0.146235
C      -1.472171   -2.824080   -1.585784
N      -2.065480   -3.446123   -2.357885
H       0.868126    1.645354    0.353759
H       1.016367   -1.940735   -1.956006
H       1.419628   -2.706154   -0.394478
H      -2.122934   -2.297908    1.075747
H      -0.383510   -1.933609    1.561294
