14

N      -0.206040    1.260482   -0.513344
C      -0.099714   -0.050467   -0.162669
C      -1.055024   -1.035076    0.000385
C      -2.545161   -1.005817   -0.184176
C      -2.969089   -0.145380   -1.288713
C      -3.297160    0.589105   -2.183128
N      -0.379724   -2.145079    0.415989
N       0.850629   -1.958436    0.525725
O       1.089297   -0.537895    0.137429
H       0.643037    1.694577   -0.842281
H      -1.038025    1.492364   -1.039611
H      -2.885014   -2.031932   -0.364820
H      -3.052678   -0.677006    0.734239
H      -3.619186    1.204434   -2.987081
