16

C      -0.366475    1.635835    0.005490
C       0.078491    0.181291   -0.081825
C       0.913125   -0.210973   -1.338941
C       2.065992   -0.451435   -0.335797
O       1.248594   -0.052448    0.777091
C       2.547825   -1.832368   -0.226048
N       2.939332   -2.917487   -0.159966
C      -1.006420   -0.737712    0.237188
C      -1.909160   -1.490155    0.487405
H       0.467802    2.299856   -0.236838
H      -1.188793    1.824088   -0.691200
H      -0.712288    1.859957    1.017793
H       0.565128   -1.093966   -1.870759
H       1.088029    0.607188   -2.037663
H       2.932973    0.208629   -0.454219
H      -2.698931   -2.163347    0.715055
