12

O       0.075931    0.082015    0.737609
C       0.029398    1.208592    0.304204
N      -1.190863    1.827703    0.028724
C      -1.494515    3.160253   -0.254734
O      -2.579546    3.478297   -0.679873
C      -0.503367    4.177418    0.234819
N       0.768905    4.128352    0.313319
N       1.517221    3.159660   -0.297930
C       1.253159    1.915075   -0.205623
H      -1.992121    1.204066    0.035702
H      -0.984058    5.062576    0.647757
H       1.988346    1.228047   -0.621055
