17

C      -0.153697    0.782583   -0.691385
O      -0.013447    0.960415    0.711031
C       0.770879    0.046483    1.311564
C       1.493025   -1.044758    0.895866
N       2.142742   -1.606692    1.980967
C       1.812755   -0.881616    3.020823
C       2.234581   -1.089133    4.439095
O       2.580642    0.134779    5.084233
N       0.969989    0.145662    2.664585
H      -0.606605   -0.190269   -0.918854
H      -0.806315    1.582927   -1.041380
H       0.819125    0.851233   -1.193745
H       1.590872   -1.450048   -0.097628
H       1.414053   -1.498860    5.040494
H       3.049486   -1.823621    4.446580
H       3.342437    0.498130    4.619542
H       0.620493    0.872281    3.267304
