19

O       0.139931    1.427057    0.036012
C       0.067435    0.023746    0.022373
C       0.148269   -0.637224    1.458600
C      -1.361465   -0.650416    1.394798
C      -2.479147   -0.216541    1.969353
C      -3.526746    0.078045    0.890889
O      -4.335099    1.208068    1.176396
C      -2.669272    0.221634   -0.413120
C      -1.393334   -0.576305   -0.107634
H      -0.445315    1.746865    0.733718
H       0.803064   -0.311327   -0.711896
H       0.595211   -1.635442    1.409967
H       0.640547   -0.059344    2.245062
H      -2.670985   -0.023223    3.018679
H      -4.249755   -0.741764    0.792950
H      -3.746857    1.960966    1.304762
H      -3.205277   -0.100352   -1.308980
H      -2.420281    1.283445   -0.542941
H      -1.354228   -1.548766   -0.610449
