25

C       0.104198    1.594591   -0.057284
C       0.176536    0.065651   -0.050424
C       0.565815   -0.513019    1.319557
C       0.622180   -2.016349    1.337671
C       1.819304   -2.800608    0.856471
C       1.355949   -2.988527    2.278850
C       2.236645   -2.732991    3.468673
C       0.139777   -3.925939    2.278992
C      -0.604414   -2.942254    1.319125
H       1.070284    2.037903    0.209791
H      -0.176135    1.978265   -1.043391
H      -0.635308    1.959892    0.664320
H      -0.793210   -0.349235   -0.354247
H       0.900723   -0.275998   -0.800565
H       1.541233   -0.105248    1.618137
H      -0.154090   -0.162295    2.073526
H       1.708451   -3.598004    0.122778
H       2.733039   -2.223110    0.743828
H       2.909836   -1.886676    3.295626
H       1.645876   -2.512136    4.365671
H       2.862134   -3.606226    3.693507
H       0.314376   -4.943091    1.910553
H      -0.343943   -3.992141    3.257513
H      -1.484085   -2.492817    1.788683
H      -0.899118   -3.335875    0.340139
