16

O       0.141328    0.366677    0.771762
C       0.085140    1.366989    0.125410
O      -1.055001    2.119090    0.005934
C      -0.739821    3.283756   -0.729174
C       0.377260    4.210497   -0.261892
C       1.229898    3.864281    0.963653
C       2.043820    2.626487    0.486116
N       1.172982    2.007371   -0.554145
C       0.620099    3.131243   -1.306352
H      -1.594312    3.678354   -1.262395
H       0.270014    5.246794   -0.561437
H       1.870488    4.704204    1.244262
H       0.615305    3.614676    1.834831
H       2.981199    2.930349    0.013486
H       2.258945    1.895310    1.266613
H       0.918281    3.268877   -2.337731
