18

O       0.578488    0.723252   -0.788249
C       0.045857   -0.286934    0.025031
C       0.054357   -0.115748    1.585455
C      -1.385844   -0.649458    1.607252
C      -1.938931   -1.762874    2.407376
N      -2.472157   -0.389397    2.543965
C      -1.478557   -0.473038    0.109935
C      -2.528364    0.183206   -0.672276
O      -2.285620   -1.231307   -0.762497
H       0.124833    1.546614   -0.577151
H       0.538522   -1.214441   -0.278994
H       0.812165   -0.673012    2.139440
H       0.112158    0.942600    1.864017
H      -2.619406   -2.467621    1.938536
H      -1.327489   -2.169613    3.209051
H      -2.106796    0.043140    3.389706
H      -3.454318    0.466286   -0.176046
H      -2.261097    0.752185   -1.561722
