21

C      -0.104956    1.547589    0.043886
C       0.032876    0.023357    0.020175
C       0.882207   -0.520843   -1.172471
C       2.001230   -1.366421   -0.473509
C       2.279062   -0.478148    0.760185
C       0.811486   -0.556846    1.255222
O       0.455535    0.108820    2.440270
C       0.594332   -2.066259    1.213442
C       1.305166   -2.547257    0.190625
H       0.870599    2.045170    0.057462
H      -0.641244    1.896314   -0.845275
H      -0.657112    1.873285    0.928789
H      -0.971975   -0.409604    0.006236
H       0.295566   -1.116113   -1.876372
H       1.331793    0.305507   -1.733296
H       2.846916   -1.608777   -1.117778
H       2.982677   -0.930953    1.464516
H       2.601674    0.537581    0.513192
H       0.942751   -0.295585    3.165359
H      -0.118452   -2.583037    1.845177
H       1.308461   -3.560229   -0.193315
