16

C      -0.005706    1.442692    0.431737
C      -0.074924   -0.044809    0.176400
C      -1.301442   -0.667859   -0.333911
O      -0.185292   -0.430354   -1.193735
N       1.316142    1.983573    0.151307
C       2.161384    2.639078    1.003651
N       3.265038    2.985781    0.395867
N       3.162413    2.549403   -0.911817
C       2.001211    1.959608   -1.034245
H      -0.751312    1.951751   -0.187988
H      -0.235553    1.655406    1.480043
H       0.620405   -0.650051    0.758548
H      -1.505280   -1.712659   -0.108590
H      -2.179223   -0.052515   -0.526314
H       1.916560    2.832068    2.037179
H       1.606839    1.497137   -1.925209
