18

N      -0.164127   -1.059383   -0.436197
C      -0.069977    0.053553   -0.140355
C       0.071546    1.463300    0.238249
C       1.494810    1.950222    0.133534
C       2.672480    1.588999    1.036502
C       3.395194    2.804646    0.392887
C       3.602168    2.375529   -1.087119
C       2.081756    2.439415   -1.203427
C       1.973820    3.374487   -0.019312
H      -0.583220    2.061450   -0.407046
H      -0.305010    1.582792    1.261855
H       2.429453    1.770554    2.088080
H       3.141219    0.604388    0.929502
H       4.168162    3.343230    0.935947
H       4.075322    3.165940   -1.676004
H       4.110766    1.422317   -1.269760
H       1.474654    2.433939   -2.100397
H       1.475596    4.323985    0.114922
