25

C      -0.104538    1.575770    0.021926
C      -0.012220    0.042158    0.009835
C       0.643186   -0.480851   -1.278236
C       0.998656   -1.972402   -1.177929
C       1.437455   -2.550035   -2.527464
C       2.022755   -2.213214   -0.039418
C       3.484155   -1.881886   -0.406918
C       1.613381   -1.459005    1.203493
C       0.716985   -0.473628    1.226769
H       0.893747    2.026922   -0.000072
H      -0.660053    1.942358   -0.847827
H      -0.613949    1.936196    0.922065
H      -1.043900   -0.344438    0.047868
H      -0.025692   -0.309507   -2.130510
H       1.553040    0.101050   -1.480574
H       0.082096   -2.500209   -0.876918
H       2.290478   -2.005022   -2.945227
H       1.725998   -3.603422   -2.438315
H       0.621703   -2.488951   -3.255678
H       1.997752   -3.286847    0.200174
H       3.589623   -0.842940   -0.735482
H       4.134097   -2.014404    0.464341
H       3.859697   -2.533000   -1.201538
H       2.108944   -1.752844    2.127433
H       0.477420    0.009602    2.172857
