18

C      -0.060207    1.509725    0.028803
C       0.065068    0.013156    0.035928
O      -0.783533   -0.712692    0.940267
C       0.639988   -0.837215    1.076597
C       1.327441   -2.006805    0.273944
N       1.820025   -1.280988   -0.940357
C       0.461116   -0.761789   -1.291421
C      -0.301635   -2.075542   -1.323600
C       0.229149   -2.838081   -0.369320
H       0.819026    1.973732   -0.431492
H      -0.939089    1.822194   -0.546378
H      -0.166555    1.894159    1.046372
H       1.062398   -0.481990    2.012829
H       2.108639   -2.534502    0.820218
H       2.398306   -0.495051   -0.633637
H       0.443583   -0.145108   -2.190152
H      -1.159193   -2.278406   -1.949026
H      -0.092665   -3.810771   -0.026024
