15

O       0.036801   -0.056598   -0.011615
C       0.012097    1.154088   -0.004238
C       1.238735    1.963126    0.029737
C       1.364670    3.305256    0.039861
C       2.825306    3.666410    0.076288
O       3.521571    2.425486    0.089244
C       2.606646    1.336070    0.058684
C       0.309986    4.328763    0.019603
O       0.559456    5.513693    0.031018
H      -0.947546    1.707920   -0.023857
H       3.115284    4.265718   -0.798867
H       3.073259    4.259819    0.968100
H       2.738638    0.693606    0.941158
H       2.781309    0.706458   -0.825757
H      -0.735921    3.963458   -0.006100
