20

C       2.546461    1.456265   -1.027114
C       2.411169   -0.047344   -1.244944
N       0.991748   -0.434878   -1.244205
C       0.759035   -1.850491   -1.403402
C      -0.639690   -2.273160   -1.953384
O      -0.036914   -3.095210   -2.968383
C       1.255475   -2.515217   -2.714284
C       1.078879   -2.689426   -0.175474
O       1.350866   -2.222248    0.901381
H       1.989926    2.008929   -1.789388
H       2.156602    1.746302   -0.044839
H       3.596435    1.760176   -1.069153
H       2.832362   -0.313504   -2.222083
H       2.996915   -0.585856   -0.483775
H       0.599693   -0.156216   -0.346869
H      -1.300768   -2.849237   -1.296047
H      -1.176041   -1.410356   -2.366522
H       1.533505   -1.775770   -3.475085
H       2.040142   -3.275765   -2.632904
H       1.005049   -3.790679   -0.329407
