19

N       0.512302   -1.189315    0.299423
C       0.269157   -0.072287    0.123547
C      -0.055014    1.327428   -0.070583
C       0.045286    2.212273    1.175784
C       1.079587    2.314580    0.090599
N      -1.027581    1.541777   -1.107873
C      -2.387486    1.185762   -0.792680
C      -3.348282    2.106143   -0.066457
C      -3.509237    1.825652   -1.547497
H      -0.693732    2.999951    1.256299
H       0.325008    1.748218    2.114357
H       2.070833    1.918462    0.274464
H       1.059145    3.178833   -0.565682
H      -0.953127    2.473248   -1.495415
H      -2.485558    0.124426   -0.582272
H      -4.062540    1.675100    0.626815
H      -2.996896    3.094248    0.211813
H      -3.259621    2.626128   -2.237911
H      -4.331507    1.203095   -1.880947
