20

C      -0.071633    1.602877   -0.042639
C      -0.031934    0.072010   -0.028093
N      -1.360101   -0.544858    0.014153
C      -2.069570   -0.670375   -1.247033
C      -1.918337   -0.754007    1.250551
O      -1.321508   -0.506363    2.280707
C      -3.346019   -1.342397    1.264357
C      -3.871594   -1.525501    2.607417
C      -4.344174   -1.693069    3.697900
H       0.944531    2.006914   -0.090458
H      -0.624997    1.987276   -0.905843
H      -0.544963    1.975143    0.869571
H       0.480650   -0.307551   -0.919146
H       0.510200   -0.273351    0.853023
H      -2.859906   -1.418210   -1.187036
H      -2.518477    0.276939   -1.577979
H      -1.369481   -0.996804   -2.022609
H      -4.013979   -0.687382    0.690513
H      -3.342970   -2.303881    0.734232
H      -4.742991   -1.832913    4.671748
