23

C       0.201605    1.469808   -0.062481
C       0.024657   -0.045332    0.057954
C      -1.464408   -0.455207   -0.007039
O      -2.049214   -0.025603   -1.208207
C      -1.612902   -1.970049    0.127074
O      -1.991243   -2.608127   -0.835577
C      -1.314371   -2.638320    1.462598
C      -2.652576   -3.085664    2.085357
C      -0.359698   -3.825898    1.269966
H       1.261647    1.740562   -0.071077
H      -0.257095    1.831668   -0.985528
H      -0.271549    1.990430    0.777649
H       0.548938   -0.549647   -0.763000
H       0.468815   -0.403295    0.994397
H      -1.988823    0.012069    0.844378
H      -2.245484   -0.843168   -1.695141
H      -0.853009   -1.900558    2.128774
H      -2.477270   -3.555771    3.057529
H      -3.332365   -2.240985    2.236473
H      -3.149446   -3.809528    1.433084
H       0.614298   -3.501280    0.890856
H      -0.197854   -4.343986    2.219894
H      -0.782356   -4.533784    0.552332
