18

O       0.103196    0.115159    0.118790
C       0.025136    1.312120    0.059537
C      -1.210025    2.232569    0.108747
N      -0.572091    3.558284   -0.053633
C       0.610211    3.394620    0.934096
C       1.158492    2.334193   -0.115314
C       2.176142    1.862576   -1.190315
C       1.046959    2.295872   -2.247687
C       0.557506    3.261413   -1.113458
H      -1.905051    2.015232   -0.707671
H      -1.752701    2.168761    1.055667
H       1.203773    4.307553    0.977366
H       0.308758    3.074616    1.935801
H       3.065671    2.488702   -1.278766
H       2.453076    0.806555   -1.165856
H       1.373288    2.755611   -3.182652
H       0.381369    1.457977   -2.463889
H       1.097447    4.206590   -1.204232
