21

C      -0.212760    1.360839    0.020658
O       0.231629    0.022688   -0.078384
C       0.736064   -0.536176    1.104176
C      -0.104645   -0.570811    2.418026
C       0.641546   -1.911582    2.681127
C       0.751656   -2.075770    1.140970
C       2.029152   -1.601241    3.255366
O       2.511549   -0.346850    2.789280
C       2.157647   -0.036298    1.448576
H       0.603149    2.066384    0.230888
H      -0.651664    1.619170   -0.945874
H      -0.978914    1.477483    0.800120
H       0.018830    0.237760    3.141263
H      -1.162282   -0.737184    2.200329
H       0.137429   -2.694559    3.250461
H      -0.160453   -2.486643    0.701453
H       1.628392   -2.588573    0.733383
H       1.997798   -1.516340    4.347129
H       2.730955   -2.412500    2.999426
H       2.873438   -0.469241    0.731345
H       2.221224    1.053676    1.372007
