25

C       0.455866    1.509051   -0.681957
C       0.773206    0.068737   -0.313748
O       2.066040   -0.325651   -0.841573
C       2.608627   -0.527805    0.476638
C       1.216386   -0.369034    1.122490
C       1.014974    0.411499    2.438263
C       1.569726    1.849219    2.423773
C      -0.489305    0.452970    2.770446
C       1.748776   -0.378947    3.543359
H       1.247153    2.193660   -0.370468
H       0.365152    1.578544   -1.771122
H      -0.493245    1.837408   -0.245353
H      -0.015712   -0.578555   -0.720550
H       3.091046   -1.506656    0.580460
H       3.340595    0.249831    0.736395
H       0.797001   -1.366146    1.296326
H       0.994078    2.507446    1.770540
H       1.524885    2.272625    3.433305
H       2.616054    1.883059    2.104455
H      -0.907867   -0.557282    2.838837
H      -0.661526    0.950644    3.731100
H      -1.055280    0.999429    2.009083
H       2.827528   -0.419748    3.355881
H       1.600275    0.092211    4.520779
H       1.380740   -1.408651    3.608490
