21

C      -0.026686    1.523675    0.160063
C      -0.020098    0.010655    0.012304
O      -1.327870   -0.488315   -0.255395
C       1.055597   -0.657357   -0.941903
C       1.263183   -1.787493    0.129225
C       2.596453   -2.150113    0.815241
C       2.328906   -1.835677    2.325526
C       1.238432   -0.767006    2.272891
C       0.621376   -0.833605    1.098917
H       0.967483    1.901364    0.413711
H      -0.340773    2.000914   -0.776941
H      -0.728401    1.824409    0.943975
H      -1.622385   -0.091750   -1.083060
H       0.678038   -0.959111   -1.923387
H       1.943739   -0.030352   -1.060481
H       0.651495   -2.662839   -0.111941
H       2.913850   -3.183430    0.648513
H       3.398180   -1.497840    0.449691
H       1.998904   -2.731101    2.871092
H       3.228431   -1.478641    2.839056
H       1.082017   -0.039652    3.061315
