23

C       0.001544    1.525417   -0.349002
C      -0.056795    0.102161    0.235111
C      -1.390105   -0.489420    0.180164
C      -2.494514   -0.970158    0.128248
C      -3.859131   -1.517607    0.066892
C      -3.815625   -3.047224   -0.056088
O      -4.549208   -1.259040    1.300037
C      -4.612063   -0.851205   -1.115556
C      -6.074331   -1.280599   -1.255639
H       1.018913    1.922873   -0.285830
H      -0.305119    1.527654   -1.398499
H      -0.665219    2.197664    0.197964
H       0.647012   -0.544522   -0.304665
H       0.290428    0.117873    1.276278
H      -3.234318   -3.467188    0.767220
H      -4.828338   -3.454154   -0.006478
H      -3.355273   -3.345263   -1.001495
H      -4.402056   -0.333170    1.521562
H      -4.559458    0.234172   -0.963867
H      -4.057531   -1.055973   -2.038631
H      -6.579061   -0.674591   -2.014157
H      -6.166377   -2.327829   -1.558610
H      -6.603497   -1.155399   -0.307283
