15

C      -0.020915    1.496620    0.016621
C      -0.005896   -0.003448   -0.010816
C      -0.033283   -0.703758   -1.162424
O      -0.021113   -2.049332   -1.237013
C       0.021548   -2.754066   -0.078753
C       0.052247   -2.176833    1.141906
O       0.094902   -2.866555    2.306543
C       0.040541   -0.707931    1.275966
O       0.067073   -0.136943    2.356339
H       0.868850    1.877520    0.528026
H      -0.059806    1.919872   -0.990382
H      -0.881529    1.858599    0.588027
H      -0.068029   -0.260114   -2.150240
H       0.027580   -3.822467   -0.259860
H       0.099578   -3.813662    2.126760
