16

C      -0.029432    1.444441    0.002157
N       0.001957   -0.002240    0.012293
C      -0.021792   -0.817153   -1.059407
N       0.021477   -2.106057   -0.755309
C       0.080637   -2.135513    0.606561
N       0.177326   -3.279453    1.321527
C       0.064029   -0.835617    1.139799
C       0.055327   -0.461918    2.512109
O       0.083179   -1.278379    3.431917
H       0.869825    1.858376    0.469137
H      -0.077075    1.788088   -1.032821
H      -0.906828    1.820782    0.537702
H      -0.070111   -0.424299   -2.065599
H      -0.063895   -4.142744    0.865149
H       0.050125   -3.185040    2.319538
H       0.013872    0.626822    2.732193
