19

C      -0.027862    1.514998    0.051337
C       0.000351    0.008592   -0.010274
C       0.355213   -0.813857   -1.293121
C      -0.300120   -1.944484   -0.468589
O       0.593468   -2.120520    0.631569
C       0.853888   -0.751936    1.017001
C      -1.318090   -0.870856    0.040045
C      -2.026498   -1.059549    1.284486
C      -2.612095   -1.198667    2.326181
H       0.978618    1.932983   -0.063996
H      -0.656749    1.933255   -0.740847
H      -0.425277    1.858104    1.012953
H      -0.224183   -0.508147   -2.166445
H       1.410445   -0.939643   -1.544597
H      -0.601761   -2.911419   -0.866348
H       1.923827   -0.529168    0.926450
H       0.532958   -0.587181    2.051121
H      -1.998764   -0.567053   -0.760149
H      -3.129779   -1.335502    3.243044
