21

C       0.230931    1.306267    0.154623
O      -0.170035   -0.003102   -0.209134
C       0.558298   -0.538457   -1.265229
C       0.184728   -0.100276   -2.677953
O       0.546463   -1.175308   -3.537127
C       0.519478   -2.398436   -2.796133
C       0.775904   -2.024414   -1.350834
C       1.943046   -1.098587   -1.031086
C       3.138508   -0.879620   -1.936167
H       1.295043    1.341296    0.427094
H       0.053848    2.031807   -0.652209
H      -0.369261    1.593515    1.020984
H      -0.899090    0.097544   -2.697952
H       0.708144    0.790171   -3.042868
H      -0.460457   -2.893133   -2.886069
H       1.275495   -3.055694   -3.239428
H       0.401444   -2.673656   -0.568167
H       2.187461   -1.122942    0.029041
H       2.846731   -0.839751   -2.987217
H       3.647986    0.057657   -1.686693
H       3.866307   -1.690021   -1.817017
