11

O      -0.122393    0.009091    0.001907
C      -0.014298    1.211497    0.007601
C       1.256076    1.903055   -0.001085
C       2.303377    2.504423   -0.008121
C       3.523362    3.206852   -0.016318
N       4.738410    2.728328   -0.031992
C       5.486826    3.872615   -0.032224
N       4.800889    4.986965   -0.016585
O       3.483295    4.555707   -0.005546
H      -0.893752    1.883839    0.020051
H       6.566805    3.877559   -0.043556
