12

N       0.082533   -1.148240   -0.112092
C       0.067786    0.008053   -0.041426
C       0.029149    1.421243    0.069888
N       0.210821    2.342722   -1.084749
C       1.153486    2.408239    0.036283
C       0.471900    3.204464    1.207354
O      -0.845337    3.575613    0.801651
C      -0.632101    2.249670    1.247627
H       0.654135    1.804355   -1.830298
H       2.211358    2.210897   -0.071227
H       0.961895    3.782158    1.979734
H      -1.236614    1.846415    2.049615
