20

N       0.192151    1.303154   -0.349296
C       0.020154   -0.146866   -0.263673
C      -1.449290   -0.459503    0.099328
N      -2.326186    0.087422   -0.926633
C      -3.745530    0.154127   -0.573140
C      -4.535916    0.545033   -1.820519
O      -4.321514   -0.371115   -2.871080
C      -1.634032   -1.914014    0.228471
N      -1.760547   -3.056088    0.347956
H       0.331210    1.704296    0.572801
H       1.014389    1.531650   -0.895816
H       0.221063   -0.579342   -1.247943
H       0.678203   -0.644744    0.461832
H      -1.650969   -0.027761    1.099054
H      -1.964118    1.017006   -1.131262
H      -4.063878   -0.843491   -0.250153
H      -3.954017    0.857314    0.252318
H      -5.608034    0.552137   -1.597097
H      -4.258012    1.572797   -2.118195
H      -3.379823   -0.586402   -2.830080
