12

F      -0.000832    0.057778    0.003225
C      -0.022084    1.380185    0.010598
N      -1.195129    1.957551    0.029200
C      -1.192331    3.295826    0.036399
C      -0.004319    4.018754    0.024629
N       1.186819    3.420329    0.005694
C       1.201420    2.081523   -0.001731
C       2.444649    1.388249   -0.021826
C       3.486576    0.787450   -0.038762
H      -2.158547    3.791192    0.051817
H      -0.009973    5.104581    0.030558
H       4.409074    0.261030   -0.053687
