23

C      -0.017634    1.560593   -0.029463
C       0.006489    0.024549    0.018917
C       0.680345   -0.456145    1.316206
C      -1.432780   -0.519266   -0.039623
C       0.786438   -0.546936   -1.197258
O       0.153622   -0.154058   -2.423702
C       1.103247    0.400096   -3.328320
C       2.394488    0.439496   -2.562266
C       2.215758   -0.096094   -1.360798
H       0.992242    1.979808    0.022614
H      -0.481499    1.909031   -0.956147
H      -0.592441    1.962751    0.811456
H       0.087351   -0.156493    2.186674
H       0.770791   -1.548397    1.339482
H       1.681581   -0.030791    1.440265
H      -1.918029   -0.232536   -0.975653
H      -1.443884   -1.613451    0.025121
H      -2.027654   -0.129614    0.793460
H       0.742899   -1.648604   -1.117085
H       1.177338   -0.227674   -4.231823
H       0.768195    1.396551   -3.654468
H       3.315195    0.837315   -2.970094
H       2.969208   -0.229825   -0.596059
