17

O      -0.064444    1.437008    0.000346
C       0.020923    0.017641   -0.013285
C      -1.415981   -0.518246   -0.013364
O      -1.424176   -1.909439   -0.255771
C      -0.989689   -2.247345   -1.559760
C       0.267561   -1.517916   -1.960965
C       0.962244   -1.942954   -3.186655
O       0.586583   -2.845386   -3.900837
C       0.733614   -0.491264   -1.238925
H       0.799069    1.795446    0.227511
H       0.536950   -0.350910    0.887913
H      -1.888581   -0.359090    0.958161
H      -1.990475    0.033242   -0.774051
H      -0.819540   -3.327675   -1.569721
H      -1.780155   -2.043424   -2.301811
H       1.883564   -1.362739   -3.419806
H       1.642158    0.026006   -1.546477
