14

C      -0.030949    1.502959   -0.004035
C      -0.008655    0.005299   -0.034280
N      -0.041192   -0.634298   -1.166205
C      -0.021064   -2.003021   -1.205379
C       0.033377   -2.709652   -0.052480
F       0.056872   -4.030093    0.018204
N       0.068355   -2.074764    1.145777
C       0.051266   -0.675558    1.274444
O       0.084069   -0.141693    2.366340
H       0.861132    1.891196    0.499755
H      -0.080545    1.893457   -1.020747
H      -0.887933    1.863627    0.575313
H      -0.049452   -2.495713   -2.167438
H       0.109020   -2.614152    2.001212
