18

C      -0.023943    1.540754   -0.050943
C      -0.038949    0.016035    0.075248
N      -1.378748   -0.540188   -0.003120
N      -2.063512   -0.803827    1.128575
C      -3.270901   -1.199815    0.720726
C      -3.359129   -1.196477   -0.683142
O      -4.377799   -1.553552   -1.526886
C      -2.121396   -0.763811   -1.124889
N      -1.638571   -0.497697   -2.418728
H       0.999782    1.916489    0.043844
H      -0.417906    1.848803   -1.022719
H      -0.633740    1.992749    0.736084
H       0.574135   -0.437292   -0.709844
H       0.360053   -0.301611    1.040791
H      -4.021168   -1.484289    1.445055
H      -5.203265   -1.544892   -1.034271
H      -2.418699   -0.462643   -3.066106
H      -1.001163   -1.216529   -2.750924
