17

O       0.009426    0.010033    0.121875
C      -0.040156    1.199249   -0.034875
C      -1.271424    2.093799   -0.081859
C      -0.815873    3.385277   -0.802152
C       0.685089    3.482229   -0.534238
C       1.607174    4.477226   -1.202508
C       1.317189    4.634558    0.250858
C       1.200735    2.121390   -0.226765
O       2.348285    1.768952   -0.112540
H      -2.118645    1.586409   -0.547157
H      -1.552198    2.310023    0.957693
H      -1.000295    3.292581   -1.878444
H      -1.361021    4.267372   -0.457282
H       2.583696    4.098461   -1.485440
H       1.152301    5.171912   -1.900613
H       0.646934    5.426485    0.568028
H       2.093839    4.366708    0.958766
