21

C       0.106235    1.527494    0.297160
C       0.010242    0.038506    0.017311
C       0.777276   -0.638738   -1.194116
C       2.341889   -0.485273   -1.271639
C       2.577338   -1.810102   -0.437271
C       3.067258   -1.620947    1.020632
C       1.923898   -0.778984    1.592577
C       0.826309   -0.940876    0.846698
C       1.041686   -1.898902   -0.318425
H       1.150675    1.850206    0.355890
H      -0.388137    2.106852   -0.490097
H      -0.374821    1.782146    1.247806
H      -1.040862   -0.263730   -0.084403
H       0.248831   -0.660200   -2.150526
H       2.693210   -0.585469   -2.301263
H       2.770223    0.430368   -0.855512
H       3.104478   -2.590072   -0.993578
H       3.229812   -2.585313    1.523778
H       4.016352   -1.074027    1.079303
H       2.093635    0.027864    2.297535
H       0.467331   -2.824638   -0.375758
