21

C      -0.058103    1.559127   -0.000452
C       1.485957    1.547673   -0.017263
C       2.116099    0.865699    1.261221
C       1.005839    0.463653    2.244439
C       0.300059   -0.618023    1.396068
C       1.495564   -1.556614    1.107093
C       2.364125   -0.475877    0.448664
C       1.456150    0.123336   -0.642224
C       0.008649    0.005118   -0.009889
H      -0.601055    2.064425    0.804401
H      -0.435160    1.933615   -0.957430
H       2.038179    2.390018   -0.436809
H       2.973916    1.370671    1.705598
H       1.416251    0.024792    3.160590
H       0.365920    1.299334    2.537607
H      -0.570820   -1.076859    1.868354
H       1.919843   -1.996590    2.015656
H       1.252740   -2.364646    0.407654
H       3.391516   -0.727127    0.186076
H       1.575701   -0.092448   -1.704598
H      -0.759918   -0.540872   -0.559936
