23

C       0.078841    1.590383    0.052449
C      -0.002407    0.058590    0.006549
C       0.563812   -0.475362   -1.325572
C       0.187035   -1.928705   -1.670715
C       0.448796   -2.945807   -0.563764
C       1.724140   -2.719677    0.272282
C       0.753917   -2.068728    1.281639
C       0.675091   -0.537675    1.259705
O      -0.378515   -2.674336    0.601872
H       1.116718    1.934306   -0.036488
H      -0.491218    2.042217   -0.766093
H      -0.318942    1.983499    0.994142
H      -1.059654   -0.230125    0.050631
H       0.200801    0.164769   -2.138919
H       1.656136   -0.356359   -1.327613
H      -0.882534   -1.981712   -1.911462
H       0.726859   -2.240385   -2.574852
H       0.278860   -3.964622   -0.929906
H       2.153957   -3.650510    0.646250
H       2.514973   -2.099100   -0.152436
H       0.833536   -2.433986    2.311469
H       1.694277   -0.138210    1.365231
H       0.120100   -0.193658    2.141093
