22

C      -0.042769    1.590021    0.033948
C      -0.037368    0.052895    0.036133
C       0.490979   -0.456374   -1.326009
C       0.342269   -1.961472   -1.635080
C       1.538473   -2.826517   -1.231045
O       1.974294   -2.582728    0.111301
C       0.996689   -2.758397    1.053534
N       0.405989   -1.823995    1.653641
C       0.740190   -0.447797    1.275465
H       0.976452    1.987521   -0.043368
H      -0.615549    1.983146   -0.812043
H      -0.484942    1.987212    0.952807
H      -1.074971   -0.291707    0.145320
H      -0.056611    0.096433   -2.098478
H       1.543261   -0.160511   -1.436445
H      -0.571700   -2.346504   -1.167627
H       0.210515   -2.103409   -2.714889
H       1.302187   -3.893238   -1.364980
H       2.410629   -2.594308   -1.848811
H       0.759349   -3.802381    1.277532
H       1.816378   -0.327224    1.098221
H       0.470175    0.183495    2.127551
