17

O       0.544108    0.334565   -0.859322
C      -0.171141   -0.366538    0.119452
C       0.134348   -0.138986    1.628439
C      -1.376135   -0.289105    1.909546
C      -1.658561   -0.009314    0.408757
O      -1.640224   -1.644003    2.276087
C      -2.901946   -1.929466    2.651284
N      -3.244733   -3.125744    2.862475
H       0.482204    1.275851   -0.664348
H      -0.071146   -1.423398   -0.137698
H       0.798726   -0.836414    2.140737
H       0.466651    0.887564    1.814705
H      -1.826950    0.386812    2.643338
H      -1.847042    1.056854    0.240029
H      -2.442584   -0.594819   -0.075943
H      -3.539794   -1.040222    2.756843
H      -4.216107   -3.158989    3.164984
