21

C       0.793671   -0.332394   -0.202558
C      -0.133291   -0.678007    0.966994
N      -1.454136   -1.217658    0.686093
C      -1.831773   -1.398953   -0.509536
N      -3.092751   -1.914603   -0.791834
C      -3.961042   -2.237491    0.340290
C      -3.564337   -2.135907   -2.085112
C      -2.644500   -1.791964   -3.247008
O      -4.674235   -2.587292   -2.282953
H       1.739078    0.058389    0.185157
H       1.026235   -1.210403   -0.815060
H       0.362518    0.434854   -0.854923
H       0.370516   -1.398398    1.625753
H      -0.281146    0.216956    1.586611
H      -1.233157   -1.178790   -1.392127
H      -4.138086   -1.341744    0.940362
H      -4.894561   -2.624499   -0.060112
H      -3.476711   -2.978519    0.980653
H      -1.716666   -2.371290   -3.219541
H      -3.186738   -2.032052   -4.160751
H      -2.378502   -0.730647   -3.257903
