14

C      -0.028851    1.510088    0.043711
C      -0.011091    0.018412   -0.052290
C      -0.029215   -0.795944   -1.151631
C       0.002672   -2.122368   -0.637132
N       0.038073   -2.150070    0.677126
N       0.029851   -0.832520    1.043057
C       0.060958   -0.458224    2.392794
O       0.096378   -1.218786    3.316550
H       0.864371    1.904171    0.540407
H      -0.062871    1.932645   -0.962514
H      -0.903224    1.880013    0.590010
H      -0.061072   -0.483286   -2.183229
H       0.000646   -3.051651   -1.189492
H       0.049054    0.640452    2.497287
