21

C       0.060334    1.523240   -0.012986
C      -0.021172    0.016868    0.030722
C      -0.909738   -0.701100    1.008298
C       0.594850   -0.851767    1.120275
C       1.341306   -1.968003    0.350147
C       0.334972   -2.899909   -0.333389
O      -0.310713   -2.041756   -1.298522
C       0.372401   -0.777587   -1.242015
C       1.817323   -1.186174   -0.904767
H       1.013002    1.866391   -0.434434
H      -0.743925    1.950473   -0.624026
H      -0.026490    1.949140    0.991924
H      -1.379303   -0.086780    1.771164
H      -1.526431   -1.517636    0.655440
H       1.092396   -0.410880    1.978010
H       2.104287   -2.486049    0.931725
H       0.831450   -3.731168   -0.851633
H      -0.413674   -3.314282    0.350004
H       0.190773   -0.253327   -2.181301
H       2.460036   -0.337615   -0.659469
H       2.289440   -1.804987   -1.674295
