16

C       0.022995    1.355156   -0.004062
O      -0.028880   -0.071568   -0.043653
C      -1.265583   -0.584506   -0.000696
N      -2.402408    0.051186    0.072752
C      -3.357701   -0.957384    0.087047
C      -2.784496   -2.194258    0.022848
C      -3.347677   -3.572667    0.007862
N      -1.414113   -1.937441   -0.034830
H       1.081316    1.614890   -0.047190
H      -0.512327    1.785958   -0.855261
H      -0.427166    1.733662    0.918324
H      -4.410405   -0.724550    0.143892
H      -3.087577   -4.119730   -0.907373
H      -3.000658   -4.174392    0.857615
H      -4.437764   -3.522475    0.063110
H      -0.667423   -2.608852   -0.090055
