21

C       0.068284    1.493955   -0.093690
C       0.036928   -0.017547   -0.040933
C      -1.248683   -0.664408   -0.549461
C      -1.138967   -2.211052   -0.644467
C       0.174816   -2.675652   -0.009805
C       0.310663   -2.114882    1.423353
C       0.750769   -0.689286    1.132221
C       1.336499   -0.755376   -0.257963
O       1.256008   -2.075103   -0.740960
H       1.024436    1.887661    0.267110
H      -0.076506    1.857516   -1.117859
H      -0.723223    1.928300    0.529356
H      -2.071488   -0.375063    0.116097
H      -1.495916   -0.243723   -1.530845
H      -1.986666   -2.698231   -0.150492
H      -1.143893   -2.535043   -1.689142
H       0.297578   -3.758906   -0.076779
H      -0.631107   -2.191968    1.976104
H       1.084757   -2.644727    1.988096
H       1.186696   -0.081689    1.917116
H       2.240596   -0.248938   -0.575583
