19

C       0.123540    1.579905   -0.113824
C       0.091300    0.057823   -0.013360
C       0.669452   -0.686544   -1.246485
C       1.188794   -2.013886   -0.710544
N       2.505174   -1.875000   -0.061935
C       1.296194   -1.939339    0.771137
C       0.814190   -0.560115    1.242986
C       1.905866    0.260620    1.771631
N       2.742987    0.921895    2.216403
H       1.150000    1.948586   -0.200327
H      -0.433726    1.914008   -0.994862
H      -0.327182    2.051571    0.765193
H      -0.952679   -0.261893    0.089512
H      -0.100188   -0.824974   -2.011213
H       1.492449   -0.122556   -1.697038
H       0.944979   -2.944682   -1.212322
H       2.986394   -2.770528   -0.034155
H       1.138738   -2.796185    1.417071
H       0.087921   -0.676165    2.054567
