16

C       0.003960    1.561334    0.186640
C      -0.045644    0.051232   -0.103992
C      -1.431180   -0.493867   -0.168408
C      -2.161806   -1.068885   -1.165289
C      -3.443905   -1.373958   -0.597896
O      -4.513649   -1.958030   -1.203165
C      -3.403989   -0.964037    0.698054
O      -2.172867   -0.424170    0.966587
H       1.039329    1.910227    0.245476
H      -0.505077    2.127456   -0.599312
H      -0.487833    1.787749    1.136418
H       0.446583   -0.166258   -1.057329
H       0.520341   -0.483547    0.669984
H      -1.831862   -1.255199   -2.176627
H      -4.283145   -2.149269   -2.116413
H      -4.113732   -0.983276    1.505647
