19

C       0.160200    1.576879   -0.002056
C       0.079145    0.074284    0.068675
O      -1.272225   -0.399832    0.283229
C      -0.887730   -1.121792    1.482111
C       0.593321   -0.864158    1.215426
C       1.190109   -1.830058    0.135149
O       0.561295   -3.071464   -0.036490
C       0.820804   -0.788278   -0.981407
O      -0.005960   -1.283668   -2.011811
H       1.197437    1.912252   -0.106121
H      -0.406808    1.939245   -0.866855
H      -0.265481    2.032397    0.896718
H      -1.281774   -0.633260    2.382101
H      -1.204315   -2.168474    1.457513
H       1.243846   -0.553441    2.031746
H       2.264646   -1.999429    0.258535
H      -0.101393   -2.931576   -0.729925
H       1.701236   -0.267715   -1.379219
H       0.557174   -1.623707   -2.714678
