13

C      -0.028803    1.548021   -0.005701
C       0.002957   -0.002889    0.003463
C       0.750014   -0.536142    1.254044
C      -1.379933   -0.518075    0.006294
N      -2.469228   -0.898943    0.047678
C       0.686410   -0.482780   -1.213253
N       1.259042   -0.836975   -2.151323
H       0.993971    1.931512   -0.013213
H      -0.554333    1.922639   -0.885678
H      -0.539394    1.905345    0.891408
H       0.242567   -0.186476    2.155942
H       0.772001   -1.627178    1.260066
H       1.775740   -0.160556    1.250990
