19

C      -0.021888    1.564595   -0.211956
C      -0.045924    0.065669   -0.020484
C      -1.364939   -0.534280    0.411268
O      -1.827102    0.150908    1.558515
C      -3.054257   -0.326092    2.043352
C      -3.427390    0.485624    3.272366
O      -4.453555    0.338119    3.879955
C       0.896131   -0.799856   -0.744368
O       1.103529   -0.491077    0.633963
H       0.978857    1.894194   -0.499818
H      -0.729738    1.868314   -0.990992
H      -0.305827    2.067112    0.715758
H      -2.101934   -0.445831   -0.405820
H      -1.226178   -1.603950    0.628964
H      -3.861557   -0.234053    1.296855
H      -3.000294   -1.390955    2.328117
H      -2.656699    1.233108    3.562456
H       0.636825   -1.836644   -0.958768
H       1.602076   -0.349398   -1.440984
