16

O       0.036623    0.107392   -0.697561
C       0.015906    1.174717   -0.164265
C      -1.061204    2.004490    0.545318
C      -0.070991    3.210780    0.565803
N       0.321407    3.675413    1.903779
C       1.393881    2.798579    2.379014
C       2.027787    2.113019    1.153202
O       3.073945    1.525414    1.130029
C       1.063636    2.310413   -0.025013
H      -1.980031    2.138078   -0.031794
H      -1.330673    1.630958    1.538775
H      -0.397275    4.049319   -0.048319
H       0.674240    4.622532    1.832460
H       2.147030    3.337353    2.957937
H       1.001612    2.003534    3.030355
H       1.606420    2.565797   -0.936019
