16

C       0.039326    1.362288    0.042937
O      -0.033597   -0.059372   -0.136546
C      -1.253661   -0.578759   -0.083530
N      -2.343935    0.067772    0.108359
C      -3.404807   -0.949683    0.059054
C      -2.675843   -2.337478    0.124913
N      -1.329810   -1.945394   -0.298223
C      -4.382656   -0.785499    1.140412
N      -5.160284   -0.688089    1.989119
H       1.098825    1.610641   -0.016582
H      -0.522614    1.873594   -0.742160
H      -0.371442    1.645910    1.014833
H      -3.951413   -0.860079   -0.889909
H      -2.688684   -2.739894    1.145049
H      -3.119686   -3.072313   -0.549689
H      -0.543750   -2.498444    0.012703
