22

C      -0.319450    1.292508   -1.013920
O      -0.515457    0.718878    0.255125
C      -1.337935   -0.428095    0.250606
C      -0.762386   -1.666991   -0.424731
N       0.284986   -2.346964    0.369272
C      -1.104566   -2.849728    0.399577
C      -1.879839   -2.401596    1.626179
C      -1.668890   -0.862191    1.712821
C      -0.595609   -0.459046    2.732607
H       0.256065    2.210305   -0.869144
H       0.242818    0.631910   -1.690801
H      -1.275930    1.547427   -1.499344
H      -2.279073   -0.189851   -0.278387
H      -0.719076   -1.724590   -1.507829
H       0.838800   -2.931885   -0.251807
H      -1.320042   -3.812262   -0.054520
H      -2.939052   -2.645305    1.481636
H      -1.550097   -2.908603    2.538875
H      -2.606921   -0.382730    2.010546
H       0.360881   -0.930561    2.501839
H      -0.454152    0.623693    2.738774
H      -0.907564   -0.771279    3.735384
