20

O      -0.096640    1.371403   -0.059130
C       0.043625   -0.034040   -0.007937
C       0.807235   -0.646407   -1.194607
C      -0.316997   -1.129516   -2.139782
C      -1.407500   -1.683578   -1.189993
C      -1.362046   -0.720547    0.006894
C      -1.058201   -1.224008    1.432810
N       0.172788   -2.049093    1.348736
C       0.277211   -0.572851    1.429988
H       0.785368    1.757240   -0.017200
H       1.480887    0.075777   -1.667242
H       1.396893   -1.500893   -0.851900
H      -0.715299   -0.274228   -2.698945
H       0.026772   -1.866466   -2.871915
H      -2.390336   -1.735905   -1.666608
H      -1.134323   -2.691480   -0.863753
H      -2.148064    0.037028    0.002762
H      -1.759957   -1.368617    2.245136
H       0.354823   -2.417831    2.281370
H       0.823596   -0.086219    2.229968
