18

C       0.025578    1.556969   -0.044466
C      -0.018340    0.027774    0.019276
N       0.663326   -0.652264   -1.077473
C       1.812537   -1.299610   -0.638246
N       2.753808   -1.875126   -1.271075
N       1.782374   -1.256332    0.760409
C       2.763679   -1.920370    1.594399
C       0.738770   -0.501394    1.243421
O       0.479099   -0.283605    2.404143
H       1.057028    1.916184   -0.115230
H      -0.533062    1.926035   -0.910246
H      -0.425573    1.970813    0.860922
H      -1.061734   -0.302566    0.095444
H       0.697340   -0.215407   -1.985070
H       2.605709   -1.826105   -2.277182
H       3.763645   -1.527960    1.393198
H       2.485315   -1.732326    2.631931
H       2.769109   -2.993904    1.390631
