21

C      -0.241115    1.528977    0.207118
C       0.046846    0.055526   -0.018578
C       0.637635   -0.661450   -1.242855
C       1.479397   -0.014851   -2.320191
C       1.802118    1.460915   -2.312646
C       2.760843    0.485894   -1.675807
C       2.686719    0.174049   -0.176089
C       1.388918   -0.624573    0.066059
O       1.508072   -1.790128    0.835943
H      -0.913534    1.938597   -0.554006
H      -0.731947    1.658760    1.177917
H       0.660787    2.144367    0.225485
H      -0.724184   -0.578597    0.416583
H       0.115175   -1.568782   -1.525049
H       1.498960   -0.525745   -3.276303
H       2.116550    1.886146   -3.260838
H       1.226596    2.145574   -1.707564
H       3.719953    0.344953   -2.162147
H       3.514438   -0.483580    0.104050
H       2.763955    1.071129    0.450556
H       1.404681   -1.547516    1.762336
