15

O      -0.209140    1.319425    0.109401
C       0.037947    0.001632    0.049508
N       0.673927   -0.529513   -0.967742
O       0.733027   -1.906569   -0.663421
C       0.129688   -2.114338    0.518550
C      -0.345604   -0.943478    1.035458
N       0.172490   -3.401464    1.009970
C      -1.055054   -4.062939    1.442415
C      -0.344262   -4.509883    0.210108
H       0.162962    1.719947   -0.687941
H      -0.863665   -0.774935    1.962561
H      -0.970810   -4.633083    2.361987
H      -1.986758   -3.517981    1.314109
H      -0.792679   -4.267574   -0.748891
H       0.265397   -5.407237    0.225066
