18

C      -0.204110    1.372623    0.184121
N       0.538566    0.145781   -0.118753
C       0.841301   -0.688827    0.946347
C       0.627344   -2.016213    1.170081
O      -0.122144   -2.825722    0.349379
C       1.262218   -2.330519    2.420167
C       1.802958   -1.170847    2.877588
C       2.556822   -0.800648    4.102234
O       1.552657   -0.159705    1.981607
H       0.377797    1.978963    0.881605
H      -0.330947    1.944980   -0.738208
H      -1.194360    1.189278    0.628845
H       0.088496   -0.400812   -0.842539
H       0.371843   -3.633746    0.177263
H       1.289370   -3.289355    2.915325
H       3.547966   -0.395461    3.865164
H       2.027883   -0.041071    4.690605
H       2.692126   -1.683105    4.731995
