17

O       0.042745    0.001131    0.156695
C       0.025155    1.200155    0.147914
C      -1.119001    2.242452    0.059867
C      -0.034377    3.310515   -0.143716
C       0.868930    3.332971    1.034427
C       1.098591    2.244095   -0.011757
C       2.384114    2.089051   -0.732098
C       3.005782    0.767683   -0.922184
O       2.332463    1.424771   -1.998220
H      -1.728445    2.046134   -0.826839
H      -1.772982    2.358301    0.929303
H      -0.071255    4.106346   -0.875129
H       1.643763    4.094021    1.040078
H       0.499231    3.071760    2.022483
H       3.034616    2.965275   -0.717050
H       4.088314    0.697730   -1.020790
H       2.498179   -0.109426   -0.528696
