18

C      -0.139089    1.741912   -0.049688
C      -0.077474    0.224226   -0.083878
C       1.087827   -0.591801   -0.746079
C       1.994551   -0.320493    0.520963
O       2.529443    0.935318    0.819821
C       0.567024   -0.656944    1.043352
N       0.554938   -1.766679    0.020206
C       1.162075   -2.994691    0.123336
O       1.794388   -3.533566   -0.758279
H      -0.428804    2.116913   -1.037712
H      -0.914951    2.062850    0.654337
H       0.801462    2.204751    0.237482
H      -1.045769   -0.189942   -0.378115
H       1.367564   -0.678840   -1.794589
H       2.726192   -1.118257    0.695771
H       3.403045    0.993318    0.420131
H       0.232919   -0.817810    2.068974
H       0.917137   -3.491300    1.085039
