17

O       0.012842    1.409478    0.179269
C       0.024257    0.013174    0.082223
C      -0.354920   -0.750941    1.333391
C      -1.262592   -0.729888    0.148690
C      -2.696047   -0.253309   -0.092331
O      -2.532977   -0.603456   -1.525752
C      -1.935297   -1.745579   -0.785541
C      -3.196542   -1.726434    0.110346
O      -3.107996   -2.368469    1.345659
H      -0.314332    1.752182   -0.659799
H       0.826007   -0.402591   -0.529680
H       0.189334   -1.658345    1.571642
H      -0.647124   -0.155184    2.191783
H      -3.168462    0.699431    0.147298
H      -1.505314   -2.560023   -1.368414
H      -4.120266   -1.939940   -0.438636
H      -3.940694   -2.247637    1.811949
