17

O       0.274803    0.913249   -0.638487
C       0.101343   -0.212654    0.176539
C       0.437527   -0.006114    1.677462
C      -0.600767   -0.832507    2.386299
C      -1.584045   -1.229585    1.581533
C      -1.396705   -0.722791    0.169220
O      -2.267100    0.414162   -0.035169
C      -1.646697   -1.728945   -0.857372
C      -1.863034   -2.538502   -1.720081
H      -0.530558    1.437511   -0.517634
H       0.735582   -1.004883   -0.230089
H       1.463478   -0.309476    1.911909
H       0.356560    1.055668    1.943143
H      -0.548118   -1.055443    3.446707
H      -2.457428   -1.805404    1.860667
H      -2.625820    0.347309   -0.926898
H      -2.045952   -3.261021   -2.477068
