19

C       0.120425    1.561348    0.031099
C       0.018988    0.031194    0.011660
C       0.583425   -0.548959   -1.306138
C       0.775863   -2.042872   -1.270974
C       1.076457   -2.693576   -0.146384
C       1.213455   -1.971623    1.142231
N       2.136901   -0.796839    1.161327
C       0.685143   -0.583139    1.229505
H       1.170288    1.873210    0.023740
H      -0.370678    2.002775   -0.842491
H      -0.349830    1.982016    0.926651
H      -1.042334   -0.250494    0.071021
H      -0.079870   -0.269511   -2.132696
H       1.549099   -0.069648   -1.514348
H       0.692024   -2.585490   -2.208753
H       1.226276   -3.769270   -0.144828
H       1.184018   -2.578750    2.043013
H       2.545529   -0.705153    2.088244
H       0.265585   -0.270780    2.185180
