17

C       0.046860    1.378132    0.091101
N      -0.026984   -0.072841    0.085277
C       1.234060   -0.790515    0.166897
C      -1.247174   -0.661455    0.004800
O      -2.315489   -0.090189   -0.064979
O      -1.152045   -2.029688    0.010239
C      -2.418132   -2.677477   -0.073415
C      -2.180778   -4.121091   -0.066922
N      -2.030522   -5.265630   -0.064142
H       0.638870    1.735616   -0.760436
H      -0.961773    1.781474    0.025420
H       0.522973    1.734347    1.012952
H       1.763355   -0.524309    1.090397
H       1.061227   -1.863000    0.155870
H       1.878027   -0.524543   -0.680718
H      -3.055564   -2.397972    0.771587
H      -2.944649   -2.387323   -0.988255
