23

C       0.155807    1.509260    0.059122
C      -0.008129   -0.012215   -0.007632
C      -1.470117   -0.492590    0.051554
C      -2.302388   -0.041284   -1.156476
C      -1.515492   -2.011681    0.177237
O      -0.811129   -2.453005    1.332198
C      -1.532620   -3.536448    1.908747
C      -2.734039   -3.724125    0.964030
O      -2.843013   -2.460171    0.333383
H       1.215030    1.784123    0.078386
H      -0.296659    2.012374   -0.800912
H      -0.308505    1.916488    0.964455
H       0.456349   -0.390630   -0.929163
H       0.536954   -0.470543    0.823305
H      -1.930075   -0.102982    0.969525
H      -3.324476   -0.420557   -1.087868
H      -2.348103    1.048898   -1.219951
H      -1.866376   -0.410669   -2.092797
H      -1.066482   -2.489945   -0.716487
H      -0.900776   -4.430561    1.965677
H      -1.845183   -3.262274    2.923648
H      -2.538102   -4.515626    0.224509
H      -3.672958   -3.941924    1.477221
