19

C      -0.252811    1.289675    0.178572
O       0.073291   -0.092497    0.066780
C       0.775414   -0.565591    1.158514
C       2.149867   -0.171704    1.684453
C       2.015630   -1.463042    2.548260
C       0.852678   -1.169989    3.549858
C      -0.029276   -1.185230    2.320532
O      -1.406521   -1.171486    2.307783
C       0.952861   -2.023350    1.515422
H       0.652367    1.910507    0.198160
H      -0.842187    1.548662   -0.703432
H      -0.839426    1.493471    1.084066
H       2.920759   -0.280028    0.915315
H       2.277608    0.778972    2.215190
H       2.901219   -1.999904    2.875730
H       0.657674   -2.026905    4.201321
H       0.914067   -0.252638    4.147464
H      -1.675207   -0.916242    1.414869
H       0.881291   -2.932019    0.936047
