21

O      -0.054356    0.926176    0.632326
C       0.022920   -0.366823    0.111086
C      -1.209653   -1.199585   -0.131060
C      -2.621757   -0.829705    0.290587
C      -3.091469    0.617537    0.108507
C      -3.230425    1.076425   -1.350967
C      -1.964990    1.252393   -2.153754
C      -0.848448    0.513557   -2.160037
C      -0.446043   -0.637078   -1.321259
H      -0.230586    1.529383   -0.102713
H       0.921797   -0.878113    0.447822
H      -1.027000   -2.264630    0.003301
H      -3.316417   -1.489444   -0.249264
H      -2.724028   -1.092291    1.351895
H      -4.080457    0.702548    0.575654
H      -2.429635    1.293414    0.654698
H      -3.884753    0.368141   -1.883986
H      -3.771826    2.029783   -1.363945
H      -2.001104    2.068191   -2.874308
H      -0.080625    0.804975   -2.876908
H       0.162973   -1.355653   -1.864106
