13

O       0.131815   -0.161453    0.236535
C       0.102209    0.916426   -0.288219
C       1.208241    1.955184   -0.111578
N       1.227124    2.932422   -1.168504
N       1.544831    2.589058   -2.470577
C       1.477334    3.707437   -3.094648
O       1.143931    4.772564   -2.329545
C       0.973943    4.273879   -1.032793
O       0.675885    4.924211   -0.073302
H      -0.744582    1.249887   -0.927955
H       1.020613    2.507866    0.816443
H       2.172103    1.445881   -0.023000
H       1.657862    3.866963   -4.145182
