16

O      -0.013141   -0.039719   -0.374796
C      -0.024001    1.145918   -0.146558
N      -1.115995    1.957379    0.004425
C      -0.867284    3.359834    0.275021
C      -1.039770    3.802390    1.757858
C       0.492883    3.668003    1.968125
C       0.679672    3.436421    0.424265
C       1.206456    2.071722    0.045971
O       2.347302    1.717821   -0.071492
H      -2.046389    1.568990   -0.040984
H      -1.341003    3.999098   -0.475101
H      -1.393132    4.832861    1.841234
H      -1.678881    3.160257    2.367369
H       1.001230    4.553131    2.351609
H       0.795813    2.811176    2.573628
H       1.192050    4.243761   -0.097022
