17

O       0.149000    1.262809   -0.530205
C       0.032770   -0.031964    0.023442
C       0.447865   -0.132836    1.510286
C      -0.306236   -1.362824    2.048552
C      -1.604005   -1.398459    1.240574
O      -2.601675   -2.022640    1.490210
C      -1.415767   -0.484176    0.044626
C      -2.541744    0.326669   -0.457371
O      -2.084957   -0.820397   -1.163958
H       1.077931    1.433221   -0.712907
H       0.604580   -0.761070   -0.572959
H       1.531400   -0.197651    1.638862
H       0.104571    0.777576    2.013422
H       0.239105   -2.291416    1.832945
H      -0.502827   -1.349643    3.122672
H      -3.512017    0.217668    0.023518
H      -2.313162    1.284472   -0.916810
