22

C      -0.196400    1.517336   -0.064081
C      -0.030765   -0.009476   -0.085195
C      -1.385939   -0.675621   -0.371813
C       1.064110   -0.465533   -1.081767
C       2.437086    0.170794   -0.806302
C       1.220409   -1.975367   -1.072729
C       0.644888   -2.856958   -2.095808
O       2.036007   -2.535394   -2.106675
H       0.712188    2.030779    0.259905
H      -0.460209    1.896172   -1.059084
H      -0.999671    1.806159    0.621576
H       0.292636   -0.324260    0.918891
H      -1.745179   -0.415108   -1.374842
H      -1.332686   -1.765742   -0.310237
H      -2.141126   -0.338172    0.345447
H       0.749228   -0.176324   -2.094845
H       3.186136   -0.256267   -1.478335
H       2.424275    1.252440   -0.959276
H       2.759243   -0.019894    0.224638
H       1.412198   -2.409356   -0.087361
H       0.404203   -3.892124   -1.855379
H       0.059468   -2.423335   -2.905833
