18

C      -0.086034    1.376494    0.120833
O       0.366037    0.040234   -0.028635
C       0.774567   -0.586745    1.168986
C      -0.356437   -0.717816    2.119314
N      -1.234962   -0.786617    2.866297
C       1.322942   -1.946290    0.776179
O       0.398384   -2.726257    0.084769
C       2.786010   -2.062305    0.425232
C       2.238655   -2.681551    1.697986
H       0.701404    2.016444    0.544364
H      -0.338319    1.734065   -0.878988
H      -0.974842    1.433933    0.761919
H       1.558990    0.002103    1.670420
H       0.103700   -2.201257   -0.670243
H       3.026480   -2.732526   -0.391348
H       3.419989   -1.185835    0.504543
H       2.495959   -2.231143    2.650407
H       2.115652   -3.757708    1.721490
