19

C      -0.103176   -1.294327    0.063526
C      -0.082262   -0.091633    0.054243
C      -0.041856    1.359171    0.057654
C      -0.050448    2.038291    1.465423
O       1.159817    2.758693    1.175016
C       1.380338    2.001940   -0.027796
C      -1.029790    2.000616   -0.904569
C      -1.353187    1.394328   -2.245077
C      -2.397356    1.420908   -1.155262
H      -0.118419   -2.356296    0.075014
H      -0.897534    2.705041    1.660820
H       0.072733    1.338505    2.300511
H       2.202686    1.284393    0.077616
H       1.555291    2.642725   -0.899045
H      -0.970370    3.085558   -0.874105
H      -1.466287    2.060869   -3.092657
H      -0.911890    0.432457   -2.481458
H      -2.637868    0.476385   -0.680029
H      -3.232541    2.105818   -1.249204
