16

C      -0.043346    1.481824    0.090908
C       0.017393   -0.019490   -0.002733
C      -0.056302   -0.672268   -1.224416
C       0.006365   -2.071162   -1.240602
O      -0.067317   -2.689121   -2.443365
C       0.139459   -2.764267   -0.044912
C       0.203552   -2.001598    1.122941
O       0.333061   -2.649701    2.300710
N       0.146507   -0.678195    1.164618
H       0.863113    1.869286    0.567247
H      -0.148223    1.944799   -0.892713
H      -0.887846    1.789162    0.716248
H      -0.160052   -0.129284   -2.154955
H      -0.012767   -3.642543   -2.314695
H       0.192850   -3.845995    0.000821
H       0.358459   -1.956087    2.974812
