21

C      -0.809683    1.490401   -0.499798
O      -0.914083    0.094502   -0.638857
C      -0.583202   -0.601611    0.546283
C      -0.728025   -2.060755    0.282927
C      -0.312418   -2.930736   -0.876456
C       0.399481   -3.918797    0.044150
C      -0.513880   -3.362054    1.171864
C      -1.942093   -3.815745    0.759037
C      -1.787795   -2.865773   -0.425979
H      -1.083040    1.936203   -1.459345
H      -1.488086    1.876722    0.277789
H       0.215724    1.801145   -0.242699
H       0.449781   -0.359123    0.856463
H      -1.244347   -0.284280    1.373475
H      -0.027239   -2.602098   -1.867131
H       0.335018   -4.992837   -0.168545
H       1.446221   -3.638417    0.193976
H      -0.197223   -3.388849    2.213118
H      -2.093675   -4.885939    0.572859
H      -2.700856   -3.456007    1.460162
H      -2.549354   -2.491011   -1.097060
