17

C       0.046723    1.517815   -0.018281
C      -0.062715    0.025164    0.122435
C      -1.372243   -0.699148   -0.216083
C      -1.310024   -1.953655    0.619383
C      -0.210118   -1.996481    1.391687
C       0.109889   -3.050385    2.355550
O       1.084885   -3.042989    3.073946
C       0.647118   -0.801094    1.121153
O       1.086895   -0.741225   -0.254865
H       1.031597    1.859658    0.308245
H      -0.088157    1.819297   -1.063055
H      -0.718101    2.024389    0.579485
H      -2.252703   -0.095416    0.041273
H      -1.443986   -0.920193   -1.288044
H      -2.068985   -2.728688    0.579747
H      -0.631642   -3.879461    2.395902
H       1.348531   -0.423983    1.857169
