16

C       0.001382    1.518904    0.016002
C       0.058616    0.017292   -0.007586
C      -1.128912   -0.845689    0.465400
C      -0.586340   -2.237619    0.352381
C       0.835818   -1.984230   -0.174200
C       0.844435   -0.927031    0.988854
N      -0.436470   -1.476440    1.635132
C       0.698974   -0.800334   -1.155283
O       1.107702   -0.540183   -2.247093
H       0.976221    1.952046   -0.227884
H      -0.717393    1.887691   -0.723636
H      -0.306393    1.889927    0.998851
H      -2.181397   -0.589286    0.481933
H      -1.189396   -3.133258    0.274650
H       1.538897   -2.802152   -0.297621
H       1.708629   -0.641535    1.582805
