16

N      -0.234810    1.104420   -0.651725
C      -0.034774   -0.043075    0.019116
O       1.001625   -0.380178    0.571029
C      -1.266077   -0.949967    0.046217
N      -2.341487   -0.554290   -0.526772
N      -1.002559   -2.101157    0.720062
C      -1.989503   -3.113815    0.974332
C      -2.371000   -3.905313   -0.279863
O      -3.453132   -4.395941   -0.454964
H       0.506886    1.778799   -0.725067
H      -1.144849    1.264791   -1.056557
H      -3.109764   -1.220875   -0.457118
H      -0.073795   -2.144313    1.116739
H      -1.574865   -3.830578    1.692805
H      -2.906903   -2.704387    1.417090
H      -1.544210   -4.000865   -1.019698
