18

O      -0.375036    0.205735   -0.157741
C       0.075894    1.314470   -0.026480
C       1.490542    1.725235   -0.373839
C       1.503999    2.915973   -1.320038
C       1.264575    4.352826   -0.928136
C       1.897319    4.692515    0.428683
C       3.286718    4.231505   -0.118603
C       2.631410    3.904223   -1.466103
H      -0.552961    2.146060    0.369434
H       1.995248    1.976230    0.567972
H       2.007616    0.863996   -0.807862
H       1.051303    2.684879   -2.282789
H       0.502615    4.946194   -1.419800
H       1.878071    5.763741    0.638792
H       1.499404    4.168034    1.303981
H       3.993141    5.060987   -0.188606
H       3.783721    3.404161    0.398956
H       3.077809    4.094986   -2.434976
