17

C       0.051647    1.367416   -0.058699
N      -0.005540   -0.071387    0.034385
N       0.044921   -0.807438   -1.113144
C       0.079822   -2.069775   -0.700182
N       0.195692   -3.117944   -1.616466
C       0.050725   -2.158799    0.711393
C      -0.000399   -0.847982    1.148122
C      -0.038160   -0.293598    2.535205
H       1.085320    1.734582   -0.085073
H      -0.449504    1.672053   -0.978661
H      -0.459604    1.818395    0.794746
H      -0.028214   -2.810303   -2.554596
H      -0.363508   -3.923567   -1.369823
H       0.066020   -3.045292    1.325292
H       0.834418    0.332986    2.753988
H      -0.931436    0.317350    2.711691
H      -0.048897   -1.111477    3.258589
