19

C      -0.021578    1.529407    0.058775
C      -0.008593    0.002844    0.002179
C      -1.380444   -0.597606    0.304191
C       0.704193   -0.596888   -1.250237
C       1.759012   -1.158520   -0.280424
O       2.757807   -1.806954   -0.376388
N       1.085292   -0.601896    0.817903
C       1.289728   -0.572247    2.184181
N       2.277055   -1.134937    2.750969
H       0.970723    1.937915   -0.152297
H      -0.724828    1.929692   -0.678332
H      -0.335995    1.887325    1.045038
H      -2.116120   -0.248059   -0.427053
H      -1.347044   -1.690096    0.266325
H      -1.733717   -0.300538    1.297483
H       0.142003   -1.363053   -1.787897
H       1.097473    0.133138   -1.960546
H       0.496841   -0.007649    2.693179
H       2.229552   -0.986984    3.757927
