19

C       0.834415    0.627737   -0.129097
C      -0.002032   -0.605990   -0.503072
C      -1.408625   -0.650567    0.086066
C      -1.819390   -1.816096    0.913062
N      -1.616657   -0.491998    1.532274
C      -2.541144    0.026388   -0.713964
O      -3.738629    0.061158    0.018305
C      -2.174182    1.393895   -1.161109
N      -1.911912    2.461889   -1.516418
H       1.830079    0.549863   -0.575454
H       0.378580    1.555676   -0.477509
H       0.969586    0.704480    0.955321
H      -0.082646   -0.676697   -1.595189
H       0.534137   -1.507282   -0.185195
H      -2.850070   -2.154840    0.908743
H      -1.075520   -2.587743    1.088911
H      -0.733936   -0.436786    2.031185
H      -2.727175   -0.564525   -1.619520
H      -3.466705    0.254251    0.932593
