15

C      -0.016857    1.532235   -0.025243
C      -0.006825    0.038525    0.046672
C      -0.032332   -0.824053   -1.009873
O      -0.013663   -2.163522   -0.614038
C       0.023867   -2.074908    0.714540
C       0.031390   -0.809953    1.218244
C       0.073248   -1.009980    2.645198
C       0.085699   -2.359363    2.829647
O       0.055013   -3.052466    1.620907
H       0.877154    1.959779    0.442851
H      -0.050873    1.877800   -1.062020
H      -0.884497    1.950516    0.497597
H      -0.063736   -0.674204   -2.075749
H       0.091863   -0.275174    3.434861
H       0.113987   -2.988145    3.702608
