17

C       0.202054    1.544162   -0.063793
C       0.061432    0.027760   -0.031896
O       0.645319   -0.490346   -1.216268
C       0.678074   -1.896124   -1.294957
C       1.495936   -2.490870   -0.165383
O       2.613842   -1.716861    0.230604
C       1.499391   -1.789240    1.135131
C       0.633760   -0.569131    1.262870
O       0.314215   -0.139193    2.347393
H       1.257480    1.819660   -0.138728
H      -0.326792    1.951515   -0.928287
H      -0.213292    1.968332    0.852007
H      -1.012768   -0.238701   -0.004140
H      -0.335420   -2.334275   -1.280137
H       1.134520   -2.135967   -2.260413
H       1.645746   -3.570668   -0.176799
H       1.687748   -2.316107    2.068242
