23

C       0.201350    1.590214   -0.165135
C      -0.143621    0.106099    0.052062
C       0.585900   -0.524249    1.221749
C      -0.109745   -0.942396    2.284875
C       0.345777   -1.547859    3.588361
C       1.840130   -1.413040    3.924289
C       2.722297   -2.130278    2.935786
C       2.817172   -1.773247    1.657802
C       2.098594   -0.592505    1.044542
H       1.267468    1.734298   -0.367769
H      -0.353679    1.997578   -1.016154
H      -0.053047    2.181168    0.720778
H      -1.224314    0.008491    0.201118
H       0.097333   -0.447456   -0.867226
H      -1.192704   -0.830451    2.223754
H      -0.240163   -1.084903    4.394835
H       0.067195   -2.612401    3.606924
H       2.098025   -0.345066    3.951315
H       2.012819   -1.797493    4.934529
H       3.283343   -2.991246    3.290950
H       3.464917   -2.340121    0.993620
H       2.308067   -0.576969   -0.030905
H       2.546525    0.339701    1.425631
