21

C      -0.113928    1.534028    0.119259
C       0.050666    0.012920    0.038881
C       0.767169   -0.479880   -1.233535
C       2.227223   -0.014618   -1.295702
C       0.680246   -2.038008   -1.332372
C      -0.783477   -2.486102   -1.418393
O      -1.357567   -3.111314   -0.569041
C       1.358583   -2.571407   -2.509025
C       1.851534   -3.025632   -3.507688
H       0.847808    2.052304    0.174028
H      -0.651651    1.920612   -0.753880
H      -0.686257    1.811933    1.009414
H       0.604946   -0.346014    0.916788
H      -0.940545   -0.449748    0.104045
H       0.239340   -0.075221   -2.109090
H       2.722594   -0.386974   -2.195368
H       2.291203    1.076468   -1.303729
H       2.787437   -0.377315   -0.425782
H       1.098897   -2.479847   -0.419961
H      -1.286450   -2.174599   -2.361349
H       2.310411   -3.430385   -4.375886
