21

C      -0.056865    1.443629    0.292775
C      -0.105682    0.000159   -0.220809
C      -1.484776   -0.622021   -0.099856
C      -1.563506   -2.122396   -0.027041
C      -1.845247   -1.252734    1.215994
C      -3.304280   -1.755786    1.207728
O      -4.265058   -0.977835    0.445861
C      -4.125330   -1.856163   -0.703121
C      -3.013528   -2.661965   -0.001226
H       0.946025    1.868337    0.184960
H      -0.751912    2.082453   -0.262609
H      -0.334890    1.495752    1.350316
H       0.208484   -0.026026   -1.272234
H       0.620478   -0.612552    0.329040
H      -2.265862   -0.072165   -0.618340
H      -0.693468   -2.733820   -0.237275
H      -1.242683   -1.105589    2.105384
H      -3.707282   -2.109246    2.159792
H      -5.048213   -2.423371   -0.877220
H      -3.859129   -1.311096   -1.616360
H      -3.109375   -3.745426    0.047028
