20

C      -0.207040    1.515883   -0.009646
C       0.010663    0.004310    0.026420
C       0.693139   -0.513681   -1.241666
N       0.908288   -1.951551   -1.140306
C       1.448061   -2.420871    0.026166
C       1.461246   -1.737163    1.199793
C       2.081433   -2.293643    2.452238
C       0.792971   -0.438291    1.279600
O       0.780083    0.233757    2.299165
H       0.737938    2.042861   -0.182099
H      -0.904450    1.795988   -0.805400
H      -0.601580    1.857099    0.948430
H      -0.966070   -0.499072    0.104941
H       0.080700   -0.306122   -2.124194
H       1.656513    0.011330   -1.368674
H       1.205551   -2.417877   -1.982835
H       1.864380   -3.423529   -0.034655
H       2.499421   -3.290240    2.280690
H       2.883829   -1.643669    2.817616
H       1.348044   -2.359295    3.263244
