17

C      -0.099873    1.535402   -0.012871
C      -0.034769    0.043744   -0.051160
C      -0.047323   -0.756755   -1.122677
C       0.086614   -2.209085   -0.734851
C      -0.070866   -2.159629    0.804804
N       0.052675   -0.726223    1.137895
C       0.201708   -0.284398    2.418114
O       0.290534    0.870818    2.782094
H       0.787566    1.961492    0.460765
H      -0.185353    1.918152   -1.032833
H      -0.955010    1.882385    0.573664
H      -0.099586   -0.405121   -2.143326
H      -0.673183   -2.851364   -1.191412
H       1.061698   -2.618043   -1.032110
H      -1.057926   -2.526248    1.109564
H       0.685762   -2.743132    1.334442
H       0.238232   -1.136454    3.126852
