16

C      -0.301710   -1.291922   -0.135885
C      -0.126733   -0.117233    0.054678
C      -0.015546    1.312778    0.109964
C       0.542622    2.127077    1.241316
C       1.398278    1.504254    2.313622
O       1.653464    0.106889    2.167858
C       2.633796    1.022408    1.671803
C       2.521197    1.306228    0.179173
N       1.260300    2.055957   -0.048607
H      -0.435828   -2.339203   -0.246653
H      -0.810613    1.802202   -0.452773
H       0.065746    3.073249    1.486490
H       1.343722    1.876807    3.332407
H       3.603291    0.988034    2.164187
H       3.348969    1.945088   -0.145996
H       2.540778    0.386800   -0.414693
