16

N       0.103373    1.327805   -0.005174
C      -0.050750   -0.021575   -0.010372
C      -1.168030   -0.787381   -0.113227
C      -0.818175   -2.206788   -0.017408
O      -1.563532   -3.164000    0.004462
C       0.706020   -2.284983    0.068386
C       1.453728   -1.739538   -1.142428
C       1.194250   -0.866796    0.058844
O       2.234307   -0.367000    0.848457
H       0.957379    1.659670    0.419192
H      -0.708669    1.900820    0.161395
H      -2.184036   -0.437151   -0.232837
H       1.171989   -3.059765    0.662540
H       2.472754   -2.098450   -1.266166
H       0.914352   -1.549738   -2.064331
H       2.986098   -0.184457    0.277014
