20

C       0.040035    1.428880    0.399641
C      -0.128028   -0.020006    0.000057
C       0.499908   -0.626152   -1.238768
C       1.416687    0.117383   -2.193358
O       2.385590   -0.745214   -2.740548
N       0.960913   -0.976483    0.088457
C       2.231616   -0.890285    0.605832
C       2.304478   -0.575915    2.086571
O       3.229051   -1.129413   -0.059413
H       1.014821    1.830965    0.116036
H      -0.733061    2.037315   -0.080885
H      -0.075477    1.546832    1.482017
H      -1.090181   -0.440398    0.293590
H      -0.057934   -1.426824   -1.723789
H       0.819899    0.502998   -3.028243
H       1.876263    0.982084   -1.692557
H       2.907203   -1.059057   -1.981607
H       2.211045    0.504778    2.240475
H       1.497549   -1.063367    2.638484
H       3.273638   -0.895645    2.469847
