22

C      -0.026827    1.639881   -0.339132
C       0.028229    0.143573   -0.014894
C      -1.343564   -0.527088    0.143957
C      -1.305705   -2.071850    0.121647
C      -2.642754   -2.497149    0.752180
C      -2.855855   -1.478721    1.889682
C      -2.095599   -0.248435    1.438152
N      -2.031507    0.872525    2.037101
O      -2.800349    0.860806    3.219322
H       0.981235    2.047577   -0.466373
H      -0.576089    1.818595   -1.270970
H      -0.526529    2.191776    0.459222
H       0.567318   -0.379883   -0.815285
H       0.606506   -0.016915    0.903419
H      -1.988114   -0.198921   -0.687601
H      -1.154163   -2.469692   -0.885626
H      -0.469739   -2.422039    0.741642
H      -3.446302   -2.405405    0.012042
H      -2.643080   -3.532417    1.102555
H      -3.904282   -1.249317    2.099877
H      -2.427654   -1.830490    2.836807
H      -2.662954    1.751841    3.557408
