20

C      -0.027989    1.344206    0.036041
N       0.102780   -0.097833   -0.064422
C       0.218607   -0.831610    1.181739
C       0.002301   -0.678991   -1.295371
O      -0.117155   -0.081778   -2.344272
O       0.060988   -2.038406   -1.219106
C      -0.006550   -2.722285   -2.483145
C      -0.054113   -4.204135   -2.160167
O      -1.208704   -4.554782   -1.422244
H       0.845583    1.773514    0.541855
H      -0.105379    1.757177   -0.967959
H      -0.923422    1.617378    0.610024
H      -0.722910   -0.813486    1.748702
H       0.493422   -1.865110    0.986737
H       0.994670   -0.374213    1.806866
H      -0.904705   -2.404196   -3.018937
H       0.869217   -2.469327   -3.090001
H      -0.090419   -4.770915   -3.096238
H       0.867883   -4.492419   -1.630216
H      -1.233944   -3.967216   -0.659225
