13

O       0.008145   -0.034359   -0.301285
C      -0.002970    1.099993    0.106592
C       1.212961    1.961028    0.096364
C       1.178256    3.466392   -0.167120
O      -0.060628    4.119232   -0.022730
C      -0.449765    4.080075    1.289293
O      -1.450381    4.546007    1.717725
O       0.474829    3.387298    2.023828
C       1.532957    2.981518    1.188619
H      -0.928902    1.554003    0.510945
H       2.088491    1.464606   -0.310189
H       1.834325    3.932592   -0.889460
H       2.502817    3.018734    1.665616
