20

C       0.250282    1.388965    0.298307
C      -0.105761   -0.063808   -0.041505
O       0.358712   -0.850204    1.072967
C      -1.635987   -0.274405   -0.224891
C      -2.490637    0.323860    0.874736
C      -3.538313   -0.492743    1.540447
N      -2.328273   -0.099822    2.275132
C       0.585117   -0.496299   -1.264486
C       1.136928   -0.891980   -2.256906
H       1.334559    1.499766    0.359254
H      -0.131966    2.069587   -0.466944
H      -0.185412    1.651525    1.264848
H       0.493077   -1.749739    0.755255
H      -1.937914    0.150262   -1.189166
H      -1.804757   -1.355876   -0.293237
H      -2.674496    1.391993    0.775362
H      -4.456996   -0.027199    1.886953
H      -3.651271   -1.526661    1.221322
H      -1.655190   -0.860853    2.309740
H       1.633880   -1.228032   -3.133627
