19

C      -0.100513    1.551016   -0.001431
C      -0.023533    0.018536   -0.003733
C       1.185676   -0.525345   -0.825467
O       1.947623   -0.757084    0.372814
C       0.789587   -0.548270    1.200758
C      -1.315891   -0.589445   -0.263217
C      -2.384461   -1.102367   -0.477840
C      -3.685697   -1.704192   -0.739112
O      -3.568946   -3.122074   -0.727164
H       0.889185    1.973924    0.196824
H      -0.451234    1.923631   -0.968378
H      -0.791095    1.903942    0.770173
H       0.971628   -1.454762   -1.366779
H       1.672477    0.191337   -1.496927
H       0.984671    0.151546    2.021528
H       0.391446   -1.488338    1.601270
H      -4.401785   -1.356851    0.023868
H      -4.059595   -1.343310   -1.711497
H      -4.444080   -3.482911   -0.902519
