18

C      -0.299029    1.431170    0.203619
C      -0.042746   -0.036801   -0.038605
C       0.730625   -0.549921   -1.221941
C       1.418143    0.330071   -2.258401
O       2.349025    1.234720   -1.689776
C       3.230221    0.595994   -0.766291
C       2.401917    0.201504    0.450859
O       2.625183    0.572673    1.577809
N       1.303594   -0.600957    0.118876
H       0.444456    2.058781   -0.292081
H      -1.291395    1.699296   -0.172533
H      -0.270633    1.649810    1.275470
H      -0.817755   -0.698219    0.345913
H       0.441602   -1.526296   -1.609242
H       1.930544   -0.327583   -2.979713
H       0.698110    0.939421   -2.813258
H       3.724676   -0.274435   -1.225341
H       3.979792    1.330931   -0.472976
