18

C      -0.228178    1.405977   -0.006001
N       0.189997    0.026112    0.156472
C       0.700940   -0.620267   -0.970975
C       1.210256   -0.104187   -2.149082
N       1.600693   -1.161713   -2.920164
C       2.353234   -1.124609   -4.148627
N       1.388529   -2.346266   -2.297698
C       0.843582   -2.018380   -1.138839
O       0.434804   -2.937173   -0.230031
H       0.645717    2.034745   -0.212886
H      -0.951798    1.557809   -0.825036
H      -0.675220    1.760163    0.925942
H      -0.496766   -0.544464    0.630562
H       1.316145    0.911237   -2.494183
H       3.435183   -1.174580   -3.971395
H       2.061046   -1.974628   -4.768562
H       2.125125   -0.198242   -4.681576
H       0.615425   -3.807155   -0.606276
