24

C      -0.029353    1.611466   -0.141295
C       0.027894    0.092410    0.048500
C      -1.363405   -0.551199    0.070373
C      -1.382083   -2.090304    0.128925
C      -0.695651   -2.630426    1.393549
C      -2.836959   -2.601142   -0.010484
C      -2.950742   -4.106431   -0.259020
O      -3.649154   -2.200858    1.093864
H       0.972473    2.052561   -0.148047
H      -0.516069    1.874649   -1.087088
H      -0.598262    2.088745    0.664428
H       0.623636   -0.354282   -0.759568
H       0.562991   -0.130658    0.979193
H      -1.941936   -0.161304    0.917321
H      -1.905260   -0.234835   -0.832087
H      -0.832798   -2.469950   -0.745612
H      -0.718979   -3.723729    1.439356
H       0.355124   -2.332973    1.433498
H      -1.177000   -2.240571    2.298303
H      -3.283067   -2.082245   -0.868437
H      -2.560425   -4.687327    0.584640
H      -3.999654   -4.382513   -0.398037
H      -2.392719   -4.403340   -1.153078
H      -3.401730   -2.743579    1.849811
