19

C      -0.522961    1.384299    0.162244
C       0.050619   -0.029131   -0.026627
C       0.823626   -0.283099   -1.354203
C       2.295160   -0.484044   -0.983591
C       2.948570    0.657916   -0.254681
C       2.418391   -0.527752    0.531179
O       3.292615   -1.322983    1.246913
C       1.038970   -0.416855    1.077347
O       0.765343   -0.722959    2.217826
H       0.248150    2.155611    0.072586
H      -1.287187    1.589558   -0.593345
H      -0.983286    1.478262    1.149904
H      -0.781355   -0.735515    0.061340
H       0.439047   -1.182018   -1.844905
H       0.699983    0.545886   -2.060103
H       2.916430   -1.127268   -1.595781
H       4.032667    0.690277   -0.274733
H       2.466010    1.628876   -0.209490
H       2.842309   -1.489060    2.089606
