22

C      -0.066521    1.519960   -0.001500
C       0.024600   -0.010816    0.008948
C       0.726931   -0.519245   -1.259392
O       0.898928   -1.924197   -1.232494
C       1.865809   -2.327167   -0.279171
C       1.665877   -1.689434    1.087638
N       2.188082   -0.315432    1.257771
C       0.730017   -0.542169    1.256177
C      -0.026787   -0.405428    2.560363
H       0.932727    1.960011    0.076216
H      -0.525478    1.877295   -0.929655
H      -0.670397    1.899358    0.828115
H      -0.988646   -0.435035    0.007037
H       0.113019   -0.300945   -2.138611
H       1.696425   -0.011276   -1.379561
H       1.771392   -3.414781   -0.201817
H       2.880671   -2.094256   -0.640614
H       1.772654   -2.365090    1.934025
H       2.522331   -0.182277    2.209213
H      -0.193854    0.646146    2.818188
H      -1.007196   -0.890665    2.498812
H       0.524804   -0.868998    3.385148
