21

C      -0.042274    1.421144    0.030684
C       1.298024    2.177363   -0.030908
C       2.014720    2.347529    1.289172
C       2.631710    1.404159    2.002029
C       2.706617   -0.058732    1.672642
C       1.671969   -0.875978    2.475958
O       0.343897   -0.382218    2.382653
C      -0.326726   -0.666720    1.190157
O       0.162506    0.010398    0.064628
H      -0.627274    1.748018    0.898516
H      -0.619028    1.642988   -0.876817
H       1.926834    1.652818   -0.760720
H       1.098342    3.167813   -0.455181
H       2.007068    3.357666    1.693872
H       3.082592    1.696377    2.949723
H       2.540916   -0.227924    0.607034
H       3.698647   -0.457427    1.924256
H       1.706096   -1.930308    2.158668
H       1.916199   -0.837906    3.542744
H      -0.242012   -1.733265    0.934835
H      -1.376445   -0.406554    1.383832
