14

O       0.007693    0.051172   -0.431613
C      -0.002226    1.189830   -0.094507
C      -1.119981    2.181253    0.407162
C       0.005007    3.142905    0.823649
O       0.660923    2.948980    2.120788
C       1.770977    3.093028    1.201760
C       1.060097    4.166649    0.278528
N       1.371509    3.398623   -0.973336
C       1.069765    2.325818    0.043886
H      -1.752448    2.533593   -0.413384
H      -1.758971    1.818371    1.214777
H       2.789863    3.062610    1.591678
H       1.094427    5.257542    0.333948
H       0.595576    3.490939   -1.635836
