16

C       0.040179    1.515405   -0.100538
N       0.008261    0.058646    0.048848
C      -1.155462   -0.563902    0.802973
C      -0.229738   -1.805084    1.028007
C       0.072248   -2.673978   -0.166131
O       0.059596   -3.878862   -0.099154
C       0.684173   -0.556981    1.263201
C      -0.500172    0.036720    2.081599
O      -0.733561    0.747116    3.003743
H       1.037365    1.803336   -0.445425
H      -0.678576    1.796845   -0.875400
H      -0.191377    2.079583    0.815086
H      -2.175677   -0.539345    0.423666
H      -0.446219   -2.419991    1.902421
H       0.305779   -2.141441   -1.105321
H       1.762610   -0.524578    1.408952
