23

C      -0.010190    1.549524   -0.104632
C       0.016896    0.034352   -0.016074
C       1.353556   -0.678800   -0.216472
C       0.704600   -0.664577    1.145800
C       1.342082    0.092526    2.286433
O       0.164870   -1.848740    1.687747
C      -0.706510   -2.602577    0.863991
C      -1.816632   -1.730817    0.290829
C      -1.230709   -0.636761   -0.612814
H       0.918354    2.008935    0.242887
H      -0.158440    1.862555   -1.145610
H      -0.833579    1.970139    0.485065
H       1.352164   -1.601583   -0.788063
H       2.243394   -0.073269   -0.360212
H       1.875367    0.979878    1.941938
H       0.587086    0.399211    3.017665
H       2.058251   -0.559057    2.797115
H      -0.149657   -3.100785    0.052914
H      -1.108365   -3.387485    1.511435
H      -2.532117   -2.347099   -0.264626
H      -2.357365   -1.276430    1.129611
H      -1.993416    0.127755   -0.794943
H      -0.986433   -1.060805   -1.595061
