16

C      -0.002448    1.393166   -0.205632
N       1.448835    1.442276    0.146093
C       1.410081    0.121249    0.580868
N       2.001861   -0.545302    1.477432
C       1.287905   -1.825309    1.657218
C      -0.227425   -1.583804    1.737208
O      -0.777650   -0.973233    0.557279
C       0.124578   -0.170437   -0.156629
H      -0.660630    1.767419    0.584806
H      -0.248616    1.853294   -1.165023
H       1.850497    2.172845    0.720888
H       1.513869   -2.531684    0.845544
H       1.621890   -2.288374    2.590637
H      -0.768973   -2.526621    1.861260
H      -0.433888   -0.948554    2.610949
H       0.265959   -0.581216   -1.162551
