18

O       0.425901    1.307558   -0.121263
C       0.265733   -0.088768   -0.191696
C      -1.195686   -0.518683   -0.085611
C      -2.093591    0.086989   -1.181500
C      -2.342150    1.520062   -1.027352
N      -2.599979    2.640875   -0.919045
C      -1.397808   -2.031171    0.174205
C      -1.885178   -1.583494    1.567063
O      -1.713038   -0.187108    1.229574
H      -0.018016    1.609333    0.680939
H       0.679100   -0.409040   -1.155816
H       0.830364   -0.606528    0.600394
H      -1.653630   -0.099352   -2.168010
H      -3.066111   -0.416236   -1.159520
H      -2.149285   -2.513311   -0.452917
H      -0.483313   -2.626971    0.159910
H      -2.927840   -1.813526    1.810870
H      -1.249058   -1.880926    2.408015
