17

N      -0.064648   -1.140856   -0.116798
C      -0.023942    0.013042   -0.051483
C       0.037015    1.467621    0.034597
C      -0.457330    2.049190    1.415920
C       0.819301    2.806882    1.825155
C       1.230097    3.498751    0.492926
C       1.484474    2.032489    0.042078
C       1.933610    1.767553    1.506888
H      -0.538871    1.877958   -0.800436
H      -1.321982    2.704808    1.287044
H      -0.726346    1.259423    2.120552
H       0.785974    3.347476    2.770678
H       0.477581    4.085308   -0.043436
H       2.157859    4.067300    0.581040
H       2.104868    1.779994   -0.816841
H       2.935695    2.153021    1.704252
H       1.832658    0.754015    1.904205
