23

C       0.266503    1.561874   -0.032407
C       0.120192    0.038303   -0.020704
C      -1.329313   -0.448317   -0.010830
C      -1.445558   -1.972360   -0.034924
C      -2.887474   -2.484025   -0.073941
O      -1.960660    0.025863    1.209672
C      -2.980116    0.907155    1.107926
C      -3.497050    1.264810    2.482483
O      -3.413408    1.342087    0.070839
H       1.320529    1.851191   -0.080503
H      -0.245452    2.004554   -0.892891
H      -0.158257    2.005713    0.872637
H       0.604035   -0.387081   -0.908509
H       0.639780   -0.382675    0.849316
H      -1.878470   -0.012653   -0.850601
H      -0.900203   -2.331599   -0.916155
H      -0.925610   -2.379680    0.841277
H      -3.438732   -2.173776    0.818379
H      -3.422595   -2.099381   -0.948509
H      -2.912807   -3.576894   -0.117920
H      -3.856621    0.366599    2.992632
H      -2.689720    1.681168    3.091381
H      -4.306062    1.988221    2.389429
