15

N      -0.009577    1.372086    0.148332
C      -0.016309   -0.005425    0.058747
C      -1.206744   -0.694092   -0.038820
N      -2.447095   -0.028925   -0.111728
C      -1.200201   -2.127136   -0.120322
O      -2.181583   -2.853584   -0.226494
N       0.101817   -2.665524   -0.073790
C       1.219160   -1.909834    0.053791
N       1.211058   -0.617359    0.121088
H       0.892726    1.782481   -0.044768
H      -0.780642    1.820832   -0.329169
H      -2.615464    0.563955    0.695550
H      -3.185037   -0.724476   -0.174886
H       0.158824   -3.673697   -0.120298
H       2.162219   -2.447301    0.095207
