19

O       0.162299   -0.121100    0.525441
C       0.026804    1.053362    0.247373
C       1.186185    1.913898   -0.124073
C       2.514801    1.628993    0.566633
C       2.342332    1.251659   -0.862233
C      -1.330712    1.730360    0.237441
C      -1.944410    1.976503   -1.172433
O      -3.045859    1.101877   -0.887688
C      -2.559428    0.830956    0.447886
H       0.963364    2.947156   -0.366871
H       3.132701    2.483905    0.815407
H       2.495857    0.831453    1.300308
H       2.207561    0.200258   -1.088189
H       2.839385    1.838412   -1.625987
H      -1.291078    2.630841    0.856477
H      -2.268395    3.006238   -1.368211
H      -1.340852    1.625139   -2.019158
H      -2.316939   -0.225535    0.596559
H      -3.267434    1.164993    1.214931
