16

C      -0.033287    1.417894    0.107479
N      -0.066648   -0.019275   -0.075876
C       0.600231   -0.614200   -1.100747
C       1.215226   -0.068574   -2.173562
C       1.750920   -1.144050   -3.026171
O       2.288039   -1.073434   -4.112000
N       1.531827   -2.335906   -2.323944
C       0.692175   -2.127019   -1.166833
H       0.986360    1.797903    0.263600
H      -0.449656    1.917078   -0.773865
H      -0.645836    1.685135    0.970631
H      -0.234861   -0.578153    0.744479
H       1.322825    0.974932   -2.423486
H       1.514809   -3.200765   -2.839250
H       1.134009   -2.540624   -0.247976
H      -0.309715   -2.567934   -1.276980
