12

C      -0.009742    1.521127    0.049564
C      -0.005001    0.037103   -0.040067
C      -0.063538   -0.793480   -1.090100
O      -0.028807   -2.108422   -0.670294
C       0.056183   -2.123009    0.708780
O       0.103781   -3.114843    1.382828
N       0.069470   -0.795860    1.082596
H       0.903330    1.898878    0.524760
H      -0.075182    1.956480   -0.949900
H      -0.861794    1.886548    0.634945
H      -0.129758   -0.620910   -2.149690
H       0.126123   -0.513643    2.045090
