12

C      -0.027450    1.429140    0.000096
N      -0.073968   -0.033937   -0.015204
N      -0.328460   -0.606823   -1.215091
N      -0.397691   -1.826713   -1.381777
O      -0.200099   -2.696110   -0.252843
C       0.065024   -2.241295    1.013278
O       0.219999   -3.009466    1.908905
C       0.140388   -0.733594    1.166074
O       0.364376   -0.175038    2.208207
H       0.954506    1.763962    0.340675
H      -0.218089    1.772240   -1.014810
H      -0.785093    1.815625    0.684890
