25

C       0.430817    1.679114   -0.065818
C       0.022494    0.201116    0.008416
C       0.378037   -0.529198   -1.303002
C      -0.267205   -1.918643   -1.433702
C       0.500154   -3.043828   -0.717850
O       1.170641   -2.655407    0.464619
C       0.397934   -1.952892    1.437107
C       0.850069   -2.447442    2.809253
C       0.619717   -0.442986    1.272023
H       1.515260    1.779469   -0.193452
H      -0.051141    2.183474   -0.909974
H       0.155135    2.216117    0.848004
H      -1.073865    0.163806    0.103487
H       0.035056    0.094655   -2.137275
H       1.468469   -0.606860   -1.403118
H      -1.297386   -1.864107   -1.060217
H      -0.350331   -2.200584   -2.490234
H      -0.184013   -3.885637   -0.516985
H       1.295263   -3.422355   -1.369605
H      -0.669727   -2.192912    1.310747
H       1.914624   -2.237235    2.954778
H       0.287737   -1.956031    3.609185
H       0.703634   -3.527813    2.891550
H       1.706177   -0.280203    1.284443
H       0.215632    0.075665    2.151252
