15

C      -0.614577    1.165607    0.140700
N       0.531927    0.292806   -0.089985
C       1.010401   -0.394884    1.103264
C       0.158200   -1.622684    1.519051
O       0.075144   -2.562282    0.466989
C       2.393447   -0.860300    0.879345
N       3.448511   -1.299944    0.708311
H      -0.318473    1.987724    0.801563
H      -0.919984    1.602116   -0.813697
H      -1.496761    0.674969    0.584355
H       0.306874   -0.413208   -0.784705
H       1.029716    0.321996    1.934075
H       0.558523   -2.064520    2.442439
H      -0.864522   -1.289881    1.718171
H       0.939002   -2.980948    0.371322
