14

N      -0.034734   -1.155599   -0.275277
C      -0.014177   -0.009125   -0.129526
C       0.020950    1.431847    0.084890
C      -0.247127    1.957574    1.527887
C       1.172741    2.529058    1.482689
C       2.164392    1.477368    1.153156
N       1.402921    2.058672    0.037835
C       1.532809    3.837075    1.938624
N       1.801149    4.888662    2.338476
H      -0.604264    1.923814   -0.661947
H      -1.022163    2.722675    1.545286
H      -0.439881    1.219285    2.307690
H       3.207589    1.772870    1.133833
H       1.976231    0.450918    1.458628
