15

C      -0.032752    1.406963    0.022779
O      -0.012418   -0.008200   -0.181077
C      -1.185149   -0.630278   -0.036884
N      -2.298252   -0.005032    0.271640
O      -3.268310   -1.016395    0.320760
C      -2.695201   -2.202567    0.039869
C      -3.587799   -3.392273    0.048446
C      -1.369316   -2.034040   -0.198666
H       0.992247    1.744629   -0.132347
H      -0.706522    1.891315   -0.690625
H      -0.364597    1.647291    1.037486
H      -4.392813   -3.281582   -0.685343
H      -3.019248   -4.292609   -0.191010
H      -4.053607   -3.523746    1.030530
H      -0.629079   -2.773936   -0.449605
