15

O      -0.117845    1.356132    0.176976
N       0.043190   -0.037600    0.080640
C      -1.072505   -0.620011   -0.093732
C      -2.441213    0.020110   -0.239978
C      -3.291727   -1.098998   -0.804743
O      -2.754363   -1.647964   -2.015366
C      -2.536172   -2.361871   -0.793205
C      -1.157429   -2.133361   -0.205891
H       0.792379    1.659868    0.258552
H      -2.822237    0.357472    0.732796
H      -2.398219    0.899071   -0.889375
H      -4.376234   -1.058206   -0.749784
H      -3.012384   -3.336321   -0.726206
H      -0.355747   -2.544688   -0.824850
H      -1.087219   -2.604499    0.783315
