16

O       0.158610    1.376185   -0.191163
C       0.122605   -0.017437   -0.001941
C      -1.336558   -0.500080    0.100267
O      -2.063350   -0.028970   -1.035814
C      -1.438274   -1.983442    0.250690
C      -1.762617   -2.822168    1.270025
C      -1.622844   -4.113709    0.693500
N      -1.252531   -4.063788   -0.561267
O      -1.125194   -2.704084   -0.845758
H      -0.505361    1.563216   -0.867911
H       0.618551   -0.562256   -0.822980
H       0.661965   -0.244204    0.923520
H      -1.801530   -0.022801    0.967857
H      -1.858432   -0.612793   -1.776545
H      -2.062968   -2.563243    2.271272
H      -1.786044   -5.079375    1.151020
