19

O       0.001937    0.017933    0.002704
C      -0.014492    1.216608    0.008980
C      -1.122362    2.265265    0.133495
C      -1.661331    2.751673   -1.263638
C      -0.761738    4.020360   -1.185196
C      -0.044478    3.410570    0.021301
C       0.656012    4.026369    1.234582
C       1.589774    2.781824    1.299292
C       1.064325    2.296477   -0.103349
H      -1.864987    2.175807    0.928092
H      -1.428702    2.072698   -2.087069
H      -2.735292    2.942517   -1.273754
H      -0.147492    4.262046   -2.057424
H      -1.340137    4.910253   -0.916194
H       1.209944    4.934592    0.975532
H       0.035465    4.241615    2.109271
H       2.658139    3.001713    1.311898
H       1.375679    2.087676    2.115065
H       1.809136    2.236214   -0.898649
