21

C      -0.148784    1.539739   -0.135298
C       0.057115    0.021114    0.033989
C       0.676545   -0.549759   -1.160189
C       1.186330   -1.019278   -2.142420
C       0.887561   -0.339021    1.304773
O       2.154510    0.305418    1.300244
C       0.121636   -0.088236    2.586067
C      -0.790062   -1.155136    3.142229
C       0.508585   -0.833181    3.836756
H       0.815137    2.043820   -0.245456
H      -0.736836    1.746171   -1.032427
H      -0.679206    1.967319    0.721045
H      -0.927007   -0.449422    0.164664
H       1.639334   -1.436355   -3.007229
H       1.116480   -1.409381    1.246052
H       2.035825    1.199342    1.636429
H      -0.209172    0.938913    2.726089
H      -1.719004   -0.846466    3.608390
H      -0.856201   -2.094428    2.602604
H       1.318885   -1.550159    3.759764
H       0.469793   -0.305765    4.783257
