20

C      -0.284974    1.541975    0.102950
C      -0.024867    0.054298    0.063835
C      -0.801081   -0.854521    1.005787
C       0.687734   -0.609304    1.204503
C       1.707399   -1.681267    0.869866
C       1.374371   -2.496677   -0.371967
O       1.749429   -3.636017   -0.514510
C       0.523657   -1.822260   -1.448906
N       0.377090   -0.384448   -1.260519
H       0.586941    2.094450   -0.262106
H      -1.143021    1.809882   -0.526655
H      -0.506590    1.873878    1.120623
H      -1.489587   -0.398409    1.709111
H      -1.116718   -1.834489    0.663674
H       0.963120    0.019471    2.046452
H       2.675905   -1.200900    0.665001
H       1.873577   -2.381380    1.694571
H       1.004510   -2.014964   -2.413397
H      -0.432298   -2.377926   -1.465431
H      -0.271379   -0.018573   -1.950115
