20

C       0.198423    1.609701   -0.070238
C       0.068415    0.102328    0.071981
C       0.851560   -0.839858   -0.891013
C       1.295176   -1.727657    0.305100
C       2.723078   -1.453547    0.822137
C       2.196952   -0.244360    1.648517
C       0.718584   -0.628958    1.293377
C      -0.141731   -0.936253    2.410386
N      -0.838888   -1.187347    3.299982
H       1.244378    1.932431   -0.087162
H      -0.260520    1.942726   -1.007321
H      -0.304076    2.131372    0.751213
H      -0.991317   -0.170439    0.056790
H       0.239874   -1.336644   -1.646320
H       1.692367   -0.356180   -1.398786
H       0.927215   -2.752968    0.312234
H       3.100400   -2.255494    1.461133
H       3.474091   -1.238644    0.057061
H       2.415435   -0.290281    2.715947
H       2.494072    0.740367    1.283016
