21

C      -0.920901    1.147013    0.288312
C      -0.039041   -0.058150   -0.003501
C       1.113924    0.072264   -1.044594
C       2.076683   -0.711024   -0.084794
C       0.984588   -0.564984    1.048101
C       1.874299    0.504308    1.764684
C       2.272325    0.225456    3.213143
C       2.983354    0.202599    0.729595
O       4.147333    0.484565    0.680911
H      -0.331927    2.033518    0.546016
H      -1.528514    1.403950   -0.586575
H      -1.605230    0.946251    1.120216
H      -0.676396   -0.902489   -0.289339
H       0.940921   -0.413341   -2.006636
H       1.431721    1.101116   -1.238899
H       2.481606   -1.652119   -0.457572
H       0.690659   -1.399515    1.686456
H       1.494245    1.528035    1.678221
H       2.634779   -0.800981    3.333716
H       3.075497    0.900153    3.523211
H       1.422391    0.365300    3.888448
