17

C       0.004121    1.440832   -0.073793
C       1.352580    0.795357    0.044573
C       0.026982   -0.051308    0.090264
C       0.432260   -0.712331   -1.230315
C       0.170700   -0.147059   -2.649874
O       1.407928    0.651160   -2.572614
C       1.690689    0.088176   -1.265753
C       2.413822   -1.272815   -1.223727
O       1.125884   -1.970344   -1.149473
H      -0.315690    1.982478    0.810318
H      -0.296448    1.907145   -1.006689
H       2.046233    1.047891    0.838323
H      -0.439338   -0.551923    0.929813
H       0.222080   -0.899350   -3.442736
H      -0.708600    0.489667   -2.789531
H       2.961631   -1.519265   -2.139053
H       3.036612   -1.477353   -0.346286
