16

C      -0.328045    1.306755   -0.404247
C      -0.081511   -0.149077   -0.180811
C       0.352632   -1.097027   -1.070313
N       0.448501   -2.283742   -0.375924
C       0.072358   -2.007202    0.905457
N      -0.257392   -0.747089    1.053687
O       0.722670   -1.055364   -2.381815
C      -0.256019   -0.781707   -3.297348
N       0.056728   -0.666629   -4.508903
H       0.238136    1.905300    0.316360
H      -0.024602    1.609402   -1.410216
H      -1.385857    1.560259   -0.273485
H       0.772028   -3.157662   -0.756557
H       0.063650   -2.761127    1.678263
H      -1.245710   -0.690917   -2.835430
H      -0.771469   -0.471190   -5.067313
