16

C       0.923222    0.777713   -0.282176
O      -0.290876    0.297406   -0.853253
C      -0.320604    0.724525    0.509724
C      -0.546014   -0.320525    1.549462
N      -0.837722    0.139045    2.772290
C      -1.026554   -0.759354    3.741278
C      -0.946380   -2.135142    3.545268
C      -0.657508   -2.601854    2.266006
C      -0.453887   -1.680847    1.246549
H       1.691077    0.024652   -0.111609
H       1.276151    1.734878   -0.663179
H      -0.846874    1.658858    0.697171
H      -1.260875   -0.357234    4.724342
H      -1.115328   -2.817171    4.370852
H      -0.598268   -3.666704    2.065220
H      -0.245233   -1.987162    0.228632
