18

O      -0.000826    1.414604   -0.106173
C       0.068973   -0.002120    0.006734
C      -1.310693   -0.619413   -0.136779
C      -1.297698   -2.012700   -0.820893
C      -2.563983   -1.545657   -1.553135
N      -1.705207   -0.279619   -1.597928
C      -0.503523   -1.227396   -1.895331
C       0.747145   -0.629083   -1.261427
O       1.425664    0.309876   -2.050897
H      -0.732413    1.594896   -0.716091
H       0.584010   -0.223574    0.943398
H      -2.067050   -0.370640    0.610559
H      -1.067416   -2.987707   -0.378203
H      -2.773783   -1.964138   -2.541250
H      -3.484113   -1.427302   -0.973258
H      -0.447804   -1.583313   -2.924829
H       1.441135   -1.433751   -0.981800
H       1.236952    1.170076   -1.645710
