21

C       0.298629    1.533759   -0.423682
C       0.022141    0.068741   -0.158828
C      -1.408092   -0.412403   -0.339024
C      -2.393042    0.217209    0.654762
C      -3.811273   -0.372301    0.517557
C      -4.767264    0.223935    1.442592
C      -5.535476    0.732563    2.214627
C       1.121476   -0.901450   -0.279339
O       0.676328   -0.462846    1.006556
H       1.356241    1.757344   -0.265342
H       0.035925    1.798450   -1.453750
H      -0.284200    2.173374    0.246215
H      -1.730116   -0.203338   -1.368388
H      -1.422993   -1.501784   -0.217652
H      -2.031033    0.053859    1.675120
H      -2.449397    1.300956    0.508562
H      -4.166944   -0.235312   -0.512589
H      -3.772927   -1.457442    0.681385
H      -6.221698    1.173861    2.893869
H       0.903944   -1.941594   -0.520673
H       2.114247   -0.559981   -0.571465
