18

O      -0.067531   -0.083107   -0.221956
C      -0.036191    1.101742    0.002159
N      -1.153588    1.894202   -0.065129
C      -1.303370    3.312847    0.195850
C      -0.090928    4.165355   -0.274924
C       0.501959    3.970931    1.149066
C      -0.941270    3.710526    1.656072
C       1.398952    2.733200    1.218534
O       1.161233    1.720743    0.230652
H      -1.991440    1.353099   -0.204612
H      -2.288121    3.603330   -0.173872
H       0.481667    3.796874   -1.126857
H      -0.392085    5.200274   -0.451173
H       1.035213    4.812568    1.599455
H      -1.438150    4.636259    1.958242
H      -1.088628    2.948046    2.425984
H       2.437973    3.018761    1.034242
H       1.348564    2.278077    2.217161
