16

C       0.003582    1.465915    0.076038
C      -0.006314   -0.021650   -0.063270
C       0.616874   -0.949666   -1.140746
C       0.108366   -1.812504    0.033172
O       0.687499   -0.834731    0.972289
C      -1.227098   -1.009556    0.035185
C      -2.033372   -0.986671    1.233632
C      -2.741113   -0.956016    2.205178
H       1.031710    1.838686    0.105782
H      -0.511252    1.930010   -0.770916
H      -0.504884    1.761032    0.998457
H       0.117964   -1.032721   -2.109957
H       1.702187   -0.885889   -1.218907
H       0.261332   -2.869586    0.246603
H      -1.834277   -1.097409   -0.871301
H      -3.351362   -0.935451    3.073838
