18

O       0.231837    1.359836    0.073470
C       0.043827   -0.048148   -0.014314
C      -1.397687   -0.509596   -0.258324
C      -1.165066   -1.986017   -0.695770
C      -0.518516   -1.312334   -1.940803
C      -1.594268   -0.205675   -1.777710
C       0.724108   -0.658186   -1.310239
O       1.295483    0.337347   -2.122966
H      -0.474622    1.787856   -0.422663
H       0.464851   -0.460299    0.906228
H      -2.137311   -0.234016    0.494662
H      -0.535347   -2.617723   -0.060594
H      -2.097410   -2.503077   -0.930801
H      -0.370504   -1.841315   -2.881698
H      -2.579480   -0.515400   -2.131770
H      -1.356341    0.788589   -2.167832
H       1.479739   -1.412478   -1.049398
H       1.378170    1.117298   -1.554315
