14

C      -0.118015    1.549665    0.143704
C       0.103404    0.078276    0.075109
O      -0.803173   -0.838044    0.663941
C       0.582385   -0.948241    1.002695
C       1.300254   -1.715778   -0.171386
O       0.335096   -2.047893   -1.157395
C       0.819754   -0.705495   -1.130198
C       1.426084   -0.129350   -2.282644
N       1.906401    0.401045   -3.192066
H       0.791696    2.089780   -0.135385
H      -0.913885    1.850176   -0.545911
H      -0.407095    1.841242    1.156312
H       0.871926   -0.908892    2.044760
H       2.234876   -2.261623   -0.147753
