19

C      -0.021890   -1.192774    0.151661
C       0.018961    0.007269    0.104219
C       0.091511    1.460924    0.067653
C       1.533146    2.009480   -0.148174
C       2.064293    1.613158   -1.451543
C       2.484305    1.316000   -2.537661
C       1.558630    3.524084    0.018633
C       1.641096    4.124261    1.399714
C       2.818583    4.216331    0.459031
H      -0.064737   -2.253087    0.182918
H      -0.555105    1.848504   -0.728696
H      -0.286654    1.874647    1.010044
H       2.167667    1.570381    0.633422
H       2.863546    1.038876   -3.489885
H       0.946418    4.052874   -0.706904
H       1.070845    5.022718    1.607378
H       1.721856    3.445935    2.243453
H       3.685521    3.599164    0.670625
H       3.056718    5.178251    0.019573
