20

O       0.031497    1.413212    0.270176
C       0.043056    0.026479   -0.027642
C      -1.386354   -0.485632    0.094771
C      -1.488892   -1.994163   -0.160370
N      -2.837132   -2.498721   -0.062148
C      -3.768391   -2.639002    1.062226
C      -4.768260   -3.290220    0.064196
C      -3.663012   -3.077147   -0.997089
O      -3.515157   -3.304274   -2.169882
H       0.925534    1.751602    0.166072
H       0.419601   -0.162016   -1.046289
H       0.697966   -0.525633    0.667317
H      -1.754311   -0.246279    1.099502
H      -2.022949    0.051655   -0.616198
H      -1.151462   -2.237698   -1.173681
H      -0.838862   -2.538592    0.540316
H      -3.404835   -3.299088    1.858260
H      -4.092669   -1.689185    1.500021
H      -5.011796   -4.336584    0.255855
H      -5.685228   -2.727916   -0.119946
