20

C       0.012285    1.337461   -0.172229
O      -0.018354   -0.068260   -0.167001
C      -1.307833   -0.589156    0.067043
C      -1.231512   -2.109150    0.041649
C      -2.588036   -2.772790    0.310026
C      -2.505024   -4.278836    0.260354
C      -3.594127   -5.114178   -0.258470
O      -2.423060   -4.870778   -1.040060
H       1.044644    1.643041   -0.359667
H      -0.631343    1.759085   -0.961197
H      -0.312754    1.758809    0.792966
H      -1.692059   -0.238109    1.042050
H      -2.013994   -0.227289   -0.701554
H      -0.853559   -2.431420   -0.934515
H      -0.497845   -2.434518    0.789231
H      -2.965383   -2.472232    1.297234
H      -3.324582   -2.437494   -0.430272
H      -1.826754   -4.730912    0.987670
H      -3.715793   -6.135961    0.098924
H      -4.505329   -4.640037   -0.622038
