25

C       0.363190    1.352797    0.347637
O      -0.237792    0.137107   -0.038088
C       0.418235   -0.561551   -1.103357
C       0.882246   -1.921508   -0.567384
C       1.846537   -1.819372    0.616223
O       2.310240   -3.090366    1.050131
C      -0.552255   -0.672424   -2.299402
C      -1.065182    0.710270   -2.724487
C       0.075525   -1.400292   -3.497357
H       1.391206    1.210842    0.713666
H       0.387359    2.083906   -0.473597
H      -0.239955    1.764647    1.161802
H       1.300290    0.016106   -1.425709
H      -0.005861   -2.492089   -0.260554
H       1.376109   -2.492915   -1.358978
H       2.746192   -1.266581    0.320991
H       1.372930   -1.264501    1.437576
H       1.552236   -3.575160    1.391785
H      -1.414042   -1.257382   -1.948666
H      -1.802777    0.617186   -3.528097
H      -1.538150    1.229244   -1.888244
H      -0.246892    1.336353   -3.101763
H       0.319650   -2.442409   -3.276393
H      -0.615013   -1.398677   -4.346732
H       0.996263   -0.900866   -3.823367
