21

C      -0.092236    1.557211   -0.192065
C       0.009059    0.040712   -0.085253
C       1.203910   -0.578035   -0.869523
C       2.012214   -0.660322    0.451002
C       0.674645   -0.491584    1.241533
C       0.659659    0.321778    2.439050
C       0.652516    1.006539    3.430978
C       0.662140    1.842271    4.623874
O      -0.216486    1.296926    5.602907
H       0.872425    2.040261   -0.002594
H      -0.420896    1.847810   -1.195752
H      -0.807731    1.957263    0.532691
H      -0.966481   -0.407656   -0.294295
H       0.968741   -1.567036   -1.272273
H       1.625668    0.031532   -1.672718
H       2.584209   -1.569611    0.646867
H       2.668148    0.201423    0.592691
H       0.263209   -1.480273    1.473402
H       1.693096    1.907702    5.009670
H       0.361997    2.867285    4.349805
H      -0.178121    1.873371    6.373025
