19

C      -0.009970    1.666074    0.010327
C       1.489292    1.318677    0.025521
C       1.121605    0.103696    0.951835
C      -0.081509    0.098900   -0.024118
O      -1.260512   -0.629931   -0.026089
C      -1.635623   -0.816484   -1.418494
C      -0.520217   -0.194613   -2.316425
C       0.645750   -0.215264   -1.328866
O       1.693268    0.758852   -1.300303
H      -0.382020    2.069116    0.953761
H      -0.375852    2.243399   -0.840418
H       2.281734    2.024632    0.260466
H       1.785489   -0.763676    0.953340
H       0.888338    0.427261    1.967253
H      -1.741058   -1.893126   -1.591315
H      -2.609407   -0.346910   -1.589904
H      -0.357269   -0.783018   -3.221550
H      -0.770737    0.827017   -2.611256
H       1.085901   -1.221297   -1.305758
