23

C      -0.429379    1.612389    0.157546
O      -0.206772    0.266014    0.502689
C      -1.164352   -0.641828   -0.025968
C      -1.014247   -0.800784   -1.560279
C      -1.407350   -2.207480   -2.075664
C      -1.169585   -3.278196   -0.999686
C      -2.071544   -2.969098    0.226418
C      -0.958626   -1.986607    0.678594
C       0.041236   -2.890602   -0.097871
H       0.303700    2.212185    0.703345
H      -0.300930    1.801785   -0.918385
H      -1.440663    1.943508    0.445086
H      -2.174112   -0.270168    0.222838
H      -1.569745   -0.026175   -2.097238
H       0.045387   -0.626201   -1.774786
H      -2.462694   -2.233486   -2.374079
H      -0.825992   -2.430933   -2.977503
H      -1.203981   -4.286581   -1.419680
H      -3.071249   -2.563116    0.035463
H      -2.154453   -3.822454    0.904685
H      -0.799790   -1.823393    1.746279
H       0.365164   -3.734277    0.517032
H       0.918585   -2.428173   -0.557053
