16

C       0.026449    1.512232    0.028788
O       1.170263    0.679769   -0.169423
C      -0.098623    0.047523    0.026642
C      -0.248559   -0.722427    1.281235
C       0.327955   -0.420978    2.674078
C       0.332947   -1.966610    2.950537
C      -0.242623   -2.175740    1.543506
O      -1.473930   -1.443573    1.471471
H       0.000458    2.051346    0.974361
H      -0.299225    2.078465   -0.842242
H      -0.515383   -0.439623   -0.854814
H       1.333497    0.001042    2.628174
H      -0.308215    0.193597    3.315033
H       1.342211   -2.367568    3.065793
H      -0.300703   -2.324168    3.765104
H      -0.131352   -3.018240    0.870039
