18

C       0.068333    1.454198   -0.129968
C      -0.061222   -0.070337   -0.057393
C      -1.488099   -0.553679    0.210914
C      -1.461221   -0.670622    1.774485
N      -0.066087   -1.023427    2.141840
C       0.618059   -0.703738    1.128582
O       1.894559   -0.997010    0.821830
C       1.982033   -0.850333   -0.617415
O       0.675377   -0.696039   -1.124102
H       1.112941    1.774862   -0.081245
H      -0.358927    1.811541   -1.071346
H      -0.467783    1.929298    0.696750
H      -2.266059    0.114824   -0.165236
H      -1.626152   -1.543753   -0.232465
H      -1.763470    0.268272    2.256756
H      -2.135589   -1.448742    2.141957
H       2.617826    0.020489   -0.830166
H       2.422508   -1.759517   -1.034009
