17

O       0.006363    0.401474    1.096086
C      -0.017748    1.218826    0.209235
O      -1.229690    1.515356   -0.338300
C      -1.473683    2.447438   -1.390956
C      -0.582345    2.283788   -2.645184
C       0.360764    3.383129   -2.057131
C      -0.855004    3.851928   -1.193432
C       1.434087    2.779321   -1.203328
C       1.242788    1.862472   -0.249062
H      -2.553098    2.391483   -1.533253
H      -0.155589    1.297471   -2.834402
H      -1.107387    2.636683   -3.536252
H       0.775367    4.106157   -2.760262
H      -1.450196    4.608316   -1.710955
H      -0.655925    4.175070   -0.170354
H       2.452396    3.118097   -1.377866
H       2.087948    1.485999    0.316287
