17

C      -0.968789    0.826234    0.009215
C       0.212296   -0.135761   -0.013661
C       1.112626    0.021345   -1.245609
O       0.805234    0.694578   -2.195646
C       2.432733   -0.737141   -1.155481
C       2.493812   -1.597909    0.100452
O       2.182097   -0.828374    1.271715
C       1.052323   -0.074921    1.265439
O       0.768127    0.585004    2.223912
H      -0.619938    1.858178    0.087632
H      -1.546200    0.731417   -0.911996
H      -1.610754    0.620891    0.867234
H      -0.150323   -1.176985   -0.072112
H       2.565995   -1.339372   -2.059552
H       3.238944    0.006026   -1.145390
H       1.809720   -2.453571    0.030715
H       3.498135   -1.987613    0.273472
