17

C      -0.322572    1.544866    0.060842
C      -0.117593    0.104327    0.027834
C       0.067350   -1.085875    0.016946
C       0.231308   -2.535509   -0.031042
C      -1.158333   -3.185026    0.077419
O      -1.494308   -3.911026    0.970317
C       0.899660   -2.965810   -1.333710
C       2.340149   -3.224405   -1.404190
O       1.395808   -4.299223   -1.371574
H       0.561214    2.060692    0.451534
H      -0.523297    1.940392   -0.940625
H      -1.171820    1.809032    0.700141
H       0.822504   -2.903638    0.814273
H      -1.845767   -2.909699   -0.753245
H       0.383005   -2.643292   -2.238498
H       2.867427   -3.093227   -2.347428
H       2.947746   -3.109284   -0.508049
