23

C      -0.070095    1.533861   -0.008640
C       0.089220    0.014854    0.022563
C       1.053050   -0.628767   -1.005909
C       2.419438    0.009884   -0.654995
C       2.282533   -0.805102    0.641426
C       3.428797   -1.061440    1.587095
C       1.503268   -1.906302   -0.165546
C       0.556004   -2.105484    1.024774
C       0.813268   -0.592091    1.250404
H       0.856941    2.063256    0.225776
H      -0.409945    1.875034   -0.993232
H      -0.817906    1.851408    0.726248
H      -0.909788   -0.427620   -0.071859
H       0.711113   -0.711401   -2.038116
H       3.228052   -0.405072   -1.266745
H       2.516519    1.098824   -0.630406
H       3.721771   -0.139800    2.104782
H       3.169504   -1.797571    2.356114
H       4.309686   -1.433691    1.051992
H       2.001779   -2.715386   -0.700527
H      -0.477378   -2.427854    0.860924
H       1.016818   -2.740149    1.786860
H       0.661599   -0.119425    2.222298
