23

C      -0.452962    1.656319   -0.503619
C      -0.193954    0.176174   -0.202954
C       0.780988   -0.508724   -1.179942
C       2.244030   -0.085624   -0.946429
O       3.099473   -0.438590   -2.012334
C       0.638151   -2.024881   -1.060430
C      -0.551195   -2.705591   -1.776657
C       0.528681   -3.427497   -2.606845
O       1.590385   -2.762151   -1.886985
H       0.463962    2.251263   -0.457099
H      -0.879787    1.785334   -1.504091
H      -1.157893    2.082657    0.216782
H       0.189883    0.066848    0.820606
H      -1.152611   -0.358946   -0.220004
H       0.524850   -0.219441   -2.209105
H       2.307555    1.003092   -0.847121
H       2.588160   -0.512472    0.013866
H       2.924007   -1.371002   -2.201523
H       0.761305   -2.323072   -0.009604
H      -1.170644   -3.351314   -1.153208
H      -1.193199   -2.024713   -2.338959
H       0.580425   -4.514854   -2.480688
H       0.550357   -3.191330   -3.676684
