20

C      -0.135113    1.547815    0.041592
C      -0.029345    0.037173    0.004557
C      -0.820854   -0.765697    1.029574
C       0.678727   -0.662655    1.127187
O       1.521391   -1.774491    0.901878
C       1.572610   -2.401530   -0.311617
N       2.467963   -3.261815   -0.562477
C       0.501500   -2.063043   -1.318141
C       0.190201   -0.561517   -1.374809
H       0.751254    2.017000   -0.400667
H      -1.011133    1.891423   -0.521061
H      -0.234687    1.918012    1.066667
H      -1.411866   -0.221635    1.758945
H      -1.245271   -1.719778    0.739327
H       1.102500   -0.076008    1.934867
H       3.087282   -3.365576    0.244628
H       0.834068   -2.439915   -2.285869
H      -0.405049   -2.622399   -1.057258
H      -0.684363   -0.386556   -2.012606
H       1.031238   -0.037245   -1.847158
