12

N       0.042629   -1.153458    0.006453
C       0.044097    0.003081    0.015831
C       0.043551    1.439737    0.042643
C       0.443956    2.237880    1.283951
C       1.631211    1.556332    1.957342
O       2.376450    1.551784    0.702433
C       1.324694    2.251579    0.065549
H      -0.760827    1.903296   -0.521061
H      -0.209735    2.983394    1.714279
H       2.133035    2.194094    2.690903
H       1.484213    0.549101    2.358245
H       1.570156    2.998733   -0.680007
