14

O       0.310921    1.340799    0.256312
C       0.167747   -0.010995    0.097404
C       0.879937   -1.106663    0.854051
C      -0.358665   -2.034237    0.713568
C      -1.098318   -0.927936   -0.059918
C      -0.260076   -1.938120   -0.805867
O      -0.691328   -2.770667   -1.803971
C       1.008424   -1.020892   -0.677490
H       0.187119    1.764331   -0.601396
H       1.666274   -1.044291    1.594365
H      -0.780973   -2.796163    1.355858
H      -2.162098   -0.740488   -0.115615
H      -0.161951   -3.576573   -1.777855
H       1.900139   -0.879801   -1.274157
