18

C       0.031925    1.542606    0.072064
C       0.020320    0.044051    0.017962
C      -1.267259   -0.786709    0.253236
C      -0.318136   -1.793633    0.868069
N       0.725227   -0.780031    1.163374
C       0.945870   -1.801037    0.047286
C       0.822619   -0.748284   -1.037876
C       1.956799   -2.869609    0.204193
O       2.010485   -3.614793    1.152461
H       1.056604    1.926678    0.056175
H      -0.502927    1.959600   -0.789240
H      -0.453900    1.905036    0.983320
H      -1.900376   -0.329379    1.018265
H      -1.873367   -1.068690   -0.613592
H      -0.514588   -2.606542    1.556829
H       0.326620   -1.002019   -1.980461
H       1.788165   -0.275513   -1.240675
H       2.686558   -2.944885   -0.633557
