18

N       0.189307    1.292787    0.339854
C      -0.036405   -0.057903    0.096953
C      -1.144868   -0.799974   -0.171635
C      -0.697115   -2.168128   -0.199914
C       0.637749   -2.159656    0.041899
O       1.053993   -0.855256    0.232184
C       1.661180   -3.205033    0.129657
C       3.079290   -2.966632   -0.353032
C       2.806884   -3.109017    1.119186
H       1.080800    1.607510   -0.024396
H      -0.557511    1.873015   -0.017457
H      -2.145050   -0.430432   -0.330970
H      -1.300082   -3.043255   -0.387215
H       1.254954   -4.196194   -0.041615
H       3.580944   -3.776474   -0.871164
H       3.310310   -1.976255   -0.728010
H       2.854347   -2.213862    1.728440
H       3.120100   -4.017794    1.621127
