17

C      -0.052138    1.575225   -0.030752
C       0.066806    0.039441    0.016375
C       0.708180   -0.478835   -1.199266
C       1.240503   -0.882802   -2.197950
N       0.742659   -0.432780    1.224356
C       2.140469   -0.095933    1.445699
C       0.092376   -1.242482    2.112023
O       0.565035   -1.694055    3.132428
H       0.930951    2.046125   -0.103172
H      -0.634116    1.875308   -0.905685
H      -0.553031    1.936099    0.871681
H      -0.949162   -0.372450    0.062732
H       1.703153   -1.254032   -3.079241
H       2.268193    0.970661    1.660694
H       2.481459   -0.673126    2.304906
H       2.736178   -0.352986    0.564281
H      -0.949374   -1.445614    1.793138
