19

O       0.214684   -0.202861   -0.187622
C       0.072163    0.997160   -0.164496
C       1.203494    1.942654    0.018486
C       1.149258    3.426351   -0.313648
C      -0.191586    4.182465   -0.309873
C      -0.643669    4.300225    1.153854
C      -1.058591    3.088692    1.951855
C       0.368234    3.570714    2.018802
C       1.435587    3.014114    1.103620
H      -0.924749    1.444539   -0.356767
H       2.134381    1.448066   -0.247554
H       1.927246    3.800793   -0.970736
H      -0.014468    5.186968   -0.706898
H      -0.949851    3.728790   -0.956980
H      -1.055893    5.254220    1.464353
H      -1.675764    3.282683    2.823663
H      -1.292046    2.149474    1.469940
H       0.723057    3.988406    2.954055
H       2.447424    3.019390    1.492543
