21

C      -0.314105    1.425018    0.057478
C       1.110764    0.948797   -0.042355
C      -0.018715   -0.054796    0.056280
C      -0.149158   -0.817355    1.360268
O      -1.467376   -1.008904    1.857941
C      -2.538596   -1.119295    0.936479
C      -2.281383   -1.918830   -0.343657
O      -1.700172   -1.154464   -1.383070
C      -0.329789   -0.853328   -1.197900
H      -0.641256    1.871802    0.990053
H      -0.779452    1.847766   -0.826487
H       1.618697    1.045944   -0.996214
H       1.760150    1.073219    0.817549
H       0.347534   -1.795160    1.244196
H       0.378740   -0.283727    2.157928
H      -3.342652   -1.606193    1.500328
H      -2.898061   -0.124421    0.631962
H      -1.680096   -2.816429   -0.122460
H      -3.248106   -2.253133   -0.735050
H      -0.037097   -0.287969   -2.088101
H       0.260651   -1.786593   -1.182586
