19

C       0.146207    1.549016   -0.030122
C       0.101029    0.037273   -0.186240
C       1.295412   -0.687697   -0.894805
C       1.455621   -1.631930    0.328159
C       2.378010   -1.081306    1.423783
O       1.321432   -0.272286    1.991116
C       0.347107   -0.832498    1.073139
C       2.879018   -2.082371    2.448380
O       3.291296   -3.179505    2.175027
H       1.047003    1.854882    0.509249
H       0.144552    2.041648   -1.008138
H      -0.719146    1.916494    0.532044
H      -0.845433   -0.267510   -0.647023
H       1.023046   -1.196342   -1.821762
H       2.168312   -0.058515   -1.094462
H       1.465072   -2.708550    0.172381
H       3.232497   -0.475412    1.082936
H      -0.510124   -1.252579    1.605803
H       2.822102   -1.708137    3.495547
