16

N      -0.074948    1.328623   -0.127008
C      -0.079618   -0.041457   -0.039436
N      -1.121085   -0.790412   -0.068405
C      -0.634615   -2.173981   -0.062838
C      -1.149445   -2.926494   -1.300112
O      -2.557506   -2.905977   -1.338058
C       0.895794   -2.089572   -0.016467
O       1.725973   -2.962268   -0.038912
N       1.139662   -0.716721    0.035499
H       0.636272    1.808063    0.405679
H      -0.995884    1.727323   -0.008670
H      -1.000489   -2.696685    0.829933
H      -0.709741   -2.472494   -2.203318
H      -0.829477   -3.971519   -1.258181
H      -2.810071   -1.985652   -1.188560
H       2.056743   -0.311970   -0.068345
