14

C      -0.040363    1.405906    0.055481
O       0.024030   -0.026644   -0.039278
C       0.631276   -0.518877   -1.102169
N       1.150464    0.202832   -2.025507
C       1.756102   -0.475964   -3.083045
N       2.323991    0.064624   -4.090144
C       1.717730   -1.941578   -2.996491
N       1.187332   -2.621032   -2.053856
O       0.591702   -1.862386   -1.015163
H       0.964923    1.831371    0.082604
H      -0.582545    1.820017   -0.797101
H      -0.570758    1.604156    0.985957
H       2.267203    1.082265   -4.003446
H       2.172153   -2.528024   -3.788876
