16

O      -0.073449    0.022391    0.451930
C      -0.087123    1.183020    0.137724
C      -1.326234    2.086002   -0.011104
C      -0.755221    3.450136    0.335111
O      -0.282791    3.530001    1.719651
C       1.110595    3.623117    1.320520
C       1.800545    2.245679    1.268617
N       1.077931    1.973928   -0.028595
C       0.698750    3.413170   -0.146851
H      -1.719116    2.073504   -1.035226
H      -2.110997    1.740887    0.663830
H      -1.377830    4.311428    0.078835
H       1.615662    4.488695    1.752536
H       2.882049    2.311735    1.116113
H       1.571105    1.527932    2.058991
H       1.060921    3.937408   -1.029219
