9

O      -0.151067    1.288911    0.010588
N       1.241678    1.766419   -0.000599
N       2.015386    0.781099   -0.013033
N       1.272376   -0.333679   -0.011783
N       1.469584   -1.674245   -0.020506
C       0.199412   -2.076088   -0.011013
N      -0.786118   -1.108247    0.004124
C      -0.046909   -0.030135    0.002519
H      -0.041139   -3.128921   -0.014110
