22

C      -0.031178    1.577349   -0.000906
C       0.062194    0.056967   -0.003884
C       0.741253   -0.558774   -1.254982
C       1.327376   -1.864160   -0.724939
C       0.802668   -3.205563   -1.176584
C       2.200248   -2.770004   -1.550115
C       1.572358   -1.619843    0.741379
C       2.243428   -0.347755    1.117853
N       0.777172   -0.462400    1.189904
H       0.960968    2.036169   -0.073586
H      -0.626161    1.929028   -0.849949
H      -0.502606    1.932779    0.919712
H      -0.951118   -0.356628    0.075656
H       0.032978   -0.713329   -2.073401
H       1.528999    0.102692   -1.635342
H       0.694186   -3.990252   -0.434325
H       0.046304   -3.221563   -1.954640
H       2.391980   -2.492847   -2.581773
H       3.035493   -3.261137   -1.061375
H       1.613833   -2.478863    1.407092
H       2.731810   -0.256936    2.083794
H       2.698001    0.247726    0.330243
