25

C       0.005807    1.513787    0.213251
O       0.144338    0.124794    0.028263
C       0.618806   -0.585726    1.169394
C      -0.546935   -0.843584    2.134893
C       1.301978   -1.879045    0.713206
C       1.647890   -2.817920    1.860292
C       0.890011   -2.513192   -0.596847
C       2.270438   -1.907739   -0.457989
C       2.723532   -0.716980   -1.276815
H       0.959639    1.982963    0.500474
H      -0.319219    1.934041   -0.742074
H      -0.745115    1.768088    0.975283
H       1.372401    0.036683    1.683903
H      -1.263967   -1.536607    1.684201
H      -0.201382   -1.263394    3.082689
H      -1.069722    0.089374    2.363191
H       0.755875   -3.220291    2.350978
H       2.229856   -3.668903    1.495094
H       2.250570   -2.312089    2.625441
H       0.786112   -3.593115   -0.640613
H       0.177031   -1.964158   -1.200882
H       3.065994   -2.637177   -0.316442
H       1.894814   -0.051687   -1.514682
H       3.486745   -0.135124   -0.745615
H       3.172662   -1.058360   -2.216760
