23

C       0.086169    1.517778    0.054828
C      -0.077720   -0.006925   -0.029426
C      -1.562973   -0.397278    0.012768
C       0.648401   -0.555307   -1.268989
C       0.794809   -2.082454   -1.311691
C       1.274372   -2.523468   -2.670012
C       1.222180   -1.713524   -3.724066
C       0.639210   -0.330809   -3.631777
O      -0.053391   -0.097787   -2.422284
H       1.142966    1.803611    0.094804
H      -0.359187    1.998298   -0.821244
H      -0.403205    1.916588    0.949038
H       0.424112   -0.454408    0.840138
H      -2.085661   -0.013133   -0.867137
H      -1.706340   -1.481368    0.042608
H      -2.040023    0.021161    0.904724
H       1.666533   -0.126807   -1.283718
H       1.506068   -2.399288   -0.537765
H      -0.157397   -2.572906   -1.071168
H       1.676988   -3.528591   -2.764638
H       1.600348   -2.020135   -4.695744
H       1.437097    0.422835   -3.773172
H      -0.089847   -0.168020   -4.435303
