15

C      -0.026941    1.192774   -0.262309
C       1.462415    1.505908   -0.020319
C       1.459592    0.185997    0.794855
O       0.068787   -0.045314    0.482345
C       2.343788   -0.913894    0.322626
C       3.193425   -1.761851    0.963287
N       3.757667   -2.568823    0.004191
N       3.318720   -2.275344   -1.135495
O       2.388980   -1.193175   -0.980586
H      -0.739067    1.886132    0.199007
H      -0.317219    1.016827   -1.303333
H       2.091316    1.484523   -0.909870
H       1.676597    2.402420    0.561407
H       1.611147    0.309986    1.873972
H       3.434787   -1.855880    2.008024
