12

C       0.022789    1.405215   -0.107501
O       1.285969    1.920090    0.351938
C       1.984548    0.806417    0.716947
C       3.210793    0.400686    1.113039
O       3.140854   -0.952368    1.362537
C       1.857230   -1.387622    1.116043
C       1.133124   -0.318471    0.718837
O      -0.128988    0.050671    0.355078
H      -0.783643    2.016292    0.304319
H       0.008675    1.414051   -1.206309
H       4.165493    0.867727    1.271605
H       1.667238   -2.432930    1.277150
