18

C      -0.145066    1.531398   -0.054215
C      -0.018233    0.048906   -0.054498
C      -0.006394   -1.066211   -1.037529
C       1.284768   -1.586364   -0.419512
N       0.963717   -0.764095    0.821645
C      -0.255075   -1.483701    1.299552
O      -0.456876   -2.022512    2.342560
C      -1.057253   -1.070737    0.116352
C      -2.539709   -1.080827   -0.099945
H       0.766067    2.005914   -0.432456
H      -0.980725    1.845308   -0.687689
H      -0.324599    1.903305    0.959703
H      -0.345089   -1.068248   -2.068092
H       1.397821   -2.658823   -0.226766
H       2.183094   -1.196007   -0.904141
H      -3.066023   -0.727037    0.791739
H      -2.822408   -0.436685   -0.939013
H      -2.899158   -2.090786   -0.322262
