19

C      -0.084748    1.429999    0.146946
N       0.108475   -0.012438    0.111669
C       0.446373   -0.559761   -0.974456
C       0.694899   -2.052926   -1.059279
N       0.260700   -2.705580   -2.299455
C      -0.922425   -2.151521   -2.971145
C       0.443974   -1.880059   -3.490763
C       1.081557   -0.523562   -3.289062
O       0.579849    0.154634   -2.137243
H       0.634471    1.980402   -0.471720
H      -1.089773    1.692337   -0.208903
H      -0.002485    1.772913    1.181711
H       1.770796   -2.246619   -0.957147
H       0.201879   -2.517158   -0.203635
H      -1.551738   -2.886839   -3.463245
H      -1.459311   -1.333573   -2.498389
H       0.801886   -2.408460   -4.373453
H       2.172686   -0.635512   -3.207156
H       0.879735    0.140363   -4.134737
