19

O       0.611631    0.039653   -0.006834
C       0.314396    1.199106    0.056729
C      -1.044347    1.945380   -0.056468
C      -0.238251    3.250893   -0.128844
C       0.592830    3.444312    1.092046
C       0.216699    3.052809    2.488367
C       1.142581    3.397909    3.629209
C      -0.170464    4.123778    3.480824
C       1.105144    2.472358    0.025712
H      -1.522387    1.677612   -1.003437
H      -1.772283    1.836863    0.751551
H      -0.432675    4.049451   -0.833149
H       1.168378    4.369103    1.061830
H      -0.307545    2.107781    2.582715
H       1.251582    2.681816    4.435718
H       2.052123    3.941315    3.394082
H      -0.144516    5.155533    3.145048
H      -0.965484    3.907961    4.185805
H       2.069722    2.613905   -0.446595
