14

C       0.026689    1.524209   -0.061095
N       1.376240    2.075470    0.109348
C       2.375341    1.308075    0.269259
N       2.381400   -0.081539    0.309957
C       1.179852   -0.731559    0.162966
N       0.997540   -2.028000    0.175191
O      -0.385094   -2.174974   -0.011300
C      -0.947557   -0.956646   -0.123955
C      -0.014319    0.020104   -0.023404
H      -0.610040    1.959344    0.720740
H      -0.371155    1.909476   -1.009425
H       3.365027    1.745945    0.393278
H       3.234780   -0.597661    0.442742
H      -2.016729   -0.952258   -0.271541
