21

C       0.243559    1.300112    0.192859
O      -0.238082    0.030677   -0.186433
C       0.506119   -0.563930   -1.212167
C       1.900774   -1.163060   -0.882586
C       1.521393   -2.388370   -1.775539
C       1.935389   -3.709887   -1.355491
C       2.273957   -4.806451   -0.994213
C       0.006906   -1.969643   -1.639978
C      -0.778206   -2.717541   -0.568930
H       1.267466    1.250533    0.592632
H       0.238913    2.004991   -0.653766
H      -0.420067    1.680409    0.973024
H       0.570741    0.116556   -2.076902
H       2.795611   -0.603102   -1.161127
H       1.962194   -1.448630    0.169905
H       1.855649   -2.213127   -2.803615
H       2.576973   -5.773728   -0.678587
H      -0.544170   -1.989927   -2.584185
H      -0.253383   -2.731253    0.389865
H      -1.748146   -2.239616   -0.408793
H      -0.942847   -3.754585   -0.875030
