17

C      -0.386964    1.470111   -0.089443
C      -0.059953   -0.022106    0.006470
O       0.738130   -0.188308    1.179818
C      -1.331457   -0.905415    0.110479
N      -2.069629   -0.611591    1.316456
C      -3.355117   -0.156023    1.304660
O      -4.028370    0.004288    0.310566
C       0.706062   -0.454972   -1.182791
N       1.307213   -0.833841   -2.094125
H       0.536156    2.049136   -0.149084
H      -0.999853    1.674590   -0.969754
H      -0.936720    1.771853    0.804002
H       1.149604   -1.060306    1.152980
H      -2.000136   -0.729614   -0.734526
H      -1.026691   -1.959619    0.089743
H      -1.567260   -0.641831    2.190011
H      -3.725384    0.045876    2.328345
