25

C       0.092068    1.555841    0.293584
C      -0.008754    0.052232   -0.005733
C       0.583690   -0.761152    1.154816
O      -1.383924   -0.314157   -0.191266
C       0.693126   -0.332043   -1.320835
C       0.151367    0.355400   -2.581867
C       0.772199   -0.190302   -3.851110
C       0.212435   -1.431881   -4.500393
C       0.043800   -0.086976   -5.166158
H       1.135701    1.880193    0.362623
H      -0.404009    2.144122   -0.481747
H      -0.388209    1.787632    1.252019
H       0.067163   -0.528683    2.093900
H       0.474540   -1.832139    0.962123
H       1.646502   -0.539369    1.297766
H      -1.863472   -0.067445    0.606448
H       1.765943   -0.126904   -1.215144
H       0.592165   -1.417081   -1.443550
H      -0.935225    0.220766   -2.616998
H       0.330510    1.436950   -2.530841
H       1.853685   -0.081672   -3.904569
H       0.898874   -2.144613   -4.944338
H      -0.664748   -1.883904   -4.048322
H      -0.945932    0.358536   -5.160316
H       0.616793    0.120254   -6.063470
