21

C       0.082270    1.568825    0.194039
C      -0.054996    0.062704    0.050693
O       0.742658   -0.346376   -1.052816
C       0.703375   -1.723243   -1.348816
C      -0.623074   -2.289085   -1.972580
C       0.233728   -2.990239   -3.059014
C       1.410508   -2.047442   -2.696762
C       1.194722   -2.548029   -0.242118
C       1.598017   -3.232965    0.660739
H       1.126437    1.842768    0.369424
H      -0.256764    2.076572   -0.713542
H      -0.517199    1.926091    1.036825
H       0.275329   -0.448621    0.965776
H      -1.106974   -0.215522   -0.119829
H      -1.260360   -2.906197   -1.337688
H      -1.203648   -1.459324   -2.384887
H       0.448373   -4.029350   -2.799301
H      -0.135931   -2.954727   -4.085046
H       1.418480   -1.142225   -3.308443
H       2.417093   -2.463462   -2.641938
H       1.958517   -3.834818    1.458171
