18

O      -0.018497    1.453066   -0.090953
C       0.017674    0.054994    0.000619
C      -0.045073   -0.624578    1.390756
C      -1.517704   -0.133315    1.569082
C      -1.351525   -0.627386    0.098951
N      -0.630671   -1.845396    0.683179
C      -1.596836   -2.445796    1.632529
C      -2.244260   -1.221406    2.338994
O      -1.918612   -1.101473    3.717989
H       0.881270    1.783625   -0.010631
H       0.713903   -0.406585   -0.708100
H       0.726924   -0.728131    2.154889
H      -1.743061    0.907448    1.793224
H      -2.116647   -0.736581   -0.672978
H      -2.313513   -3.059304    1.077129
H      -1.069767   -3.081130    2.351056
H      -3.333630   -1.177094    2.195550
H      -2.381636   -1.795905    4.196328
