15

N      -0.116378    1.406665   -0.175100
C       0.018354   -0.002678   -0.044676
C       0.481831   -1.004029   -1.121496
N       0.067137   -1.944313    0.027060
C       0.792427   -0.942375    0.939686
C      -1.156269   -1.006971    0.144322
C      -1.889331   -1.037101    1.401546
N      -2.489565   -1.027121    2.389777
H      -0.457102    1.824705    0.685836
H       0.773709    1.841885   -0.397019
H      -0.125956   -1.113099   -2.023245
H       1.549547   -1.055627   -1.344807
H       1.879705   -0.991582    0.846404
H       0.474817   -0.987743    1.983228
H      -1.849804   -1.111412   -0.693883
