22

C       0.105861    1.474480   -0.507623
C      -0.017399    0.038819   -0.044516
C       1.178340   -0.840190    0.100807
N       0.415947   -0.422868    1.276038
C       1.051160    0.510210    2.200000
C       1.729682   -0.271768    3.322778
C       2.365351    0.614775    4.382299
C       3.046368   -0.099832    5.537165
O       2.329735    1.823104    4.312185
H       1.078177    1.911548   -0.269404
H      -0.022606    1.524640   -1.594082
H      -0.668754    2.103425   -0.055009
H      -0.946884   -0.436924   -0.356755
H       1.138288   -1.896797   -0.152102
H       2.149667   -0.372167   -0.063472
H       1.791588    1.171502    1.726054
H       0.279597    1.159565    2.626320
H       1.005990   -0.942200    3.804359
H       2.504907   -0.936161    2.915672
H       3.836501   -0.761943    5.165560
H       3.472257    0.630660    6.225958
H       2.327794   -0.733192    6.069514
