14

N       0.021880    1.360509    0.082935
C      -0.023401   -0.012577    0.010054
N      -1.092677   -0.710071    0.050168
C      -0.691602   -2.109008    0.041107
C       0.833237   -2.134926   -0.068643
O       1.586355   -3.059501   -0.131935
N       1.189193   -0.743129   -0.057697
C       2.480296   -0.213539    0.043467
O       3.493523   -0.846786   -0.053880
H       0.670062    1.820936   -0.540720
H      -0.907276    1.758028    0.035553
H      -1.001151   -2.631606    0.954485
H      -1.139667   -2.649503   -0.800268
H       2.458141    0.873051    0.243604
