21

C      -0.307285    1.543184    0.090511
C      -0.357428    0.061549   -0.271843
C       0.779615   -0.382294   -1.180430
O       1.547450    0.395201   -1.697026
C       0.920044   -1.891311   -1.379615
O       1.611946   -2.237263   -2.583542
C       2.761038   -2.716122   -1.856427
C       2.030669   -2.569509   -0.502935
C       2.721612   -1.793664    0.608130
H       0.608416    1.780762    0.638957
H      -0.313297    2.160083   -0.811060
H      -1.163270    1.821552    0.711252
H      -0.353548   -0.576039    0.623834
H      -1.296289   -0.188006   -0.787792
H      -0.067404   -2.368782   -1.324925
H       3.044667   -3.731003   -2.157248
H       3.621712   -2.046267   -1.977867
H       1.677121   -3.533416   -0.128217
H       3.060835   -0.814292    0.259064
H       2.059686   -1.642347    1.467765
H       3.597330   -2.346135    0.965386
