11

N       0.057189    1.395526    0.076426
C       0.025984    0.037371    0.025995
C      -1.078952   -0.798111    0.020433
N      -2.423647   -0.393804   -0.003183
N      -0.581161   -2.072927    0.028492
N       0.655984   -2.129872    0.028929
O       1.134448   -0.655801    0.033264
H       0.889214    1.846584   -0.269463
H      -0.817316    1.838015   -0.165692
H      -2.917022   -0.620849    0.854350
H      -2.937005   -0.807200   -0.774257
