15

N       0.207830    0.848222    0.675994
C      -0.010848    0.076098   -0.429480
O       0.753533    0.056500   -1.376348
C      -1.308240   -0.702819   -0.385996
C      -1.662181   -1.737683   -1.402154
N      -0.494366   -2.496387   -1.865031
C      -0.177436   -2.902774   -0.549468
O       0.723022   -3.553644   -0.107768
C      -1.400636   -2.190421    0.022216
H       1.110543    1.290451    0.754385
H      -0.309635    0.691978    1.524667
H      -2.151018   -0.131936    0.000166
H      -2.591407   -1.757943   -1.955793
H       0.214341   -2.034669   -2.426018
H      -2.080322   -2.529368    0.791555
