20

C      -0.080472    1.300855    0.360842
O      -0.040407   -0.094856    0.161482
C      -1.310915   -0.663271   -0.100622
C      -1.104402   -2.185238   -0.173068
C      -0.294732   -2.583410   -1.414519
O      -0.446544   -2.612598    1.018498
C      -2.499270   -2.833053   -0.241064
N      -2.809967   -3.620863    0.814374
O      -3.241255   -2.616391   -1.183443
H       0.940035    1.630347    0.569366
H      -0.449603    1.824526   -0.533127
H      -0.725896    1.570025    1.210677
H      -2.008739   -0.419334    0.716288
H      -1.736106   -0.290483   -1.041229
H       0.631641   -2.005117   -1.456293
H      -0.044882   -3.646445   -1.365524
H      -0.879726   -2.398347   -2.318027
H       0.202296   -1.925622    1.218825
H      -2.144088   -3.740300    1.558669
H      -3.706089   -4.077191    0.835701
