18

C      -0.059212    1.467153   -0.049671
C       0.082496   -0.017745    0.074648
C       0.866949   -0.843162   -0.894082
C       1.065120   -2.226114   -0.331100
O       2.196673   -2.407282    0.511195
C      -0.341525   -2.036404    0.278965
C      -0.212018   -0.884469    1.298717
O       0.661503   -0.968886    2.385062
N      -0.640867   -0.985193   -0.833464
H       0.742122    1.974681    0.497920
H      -0.010763    1.781896   -1.096554
H      -1.017059    1.802139    0.361032
H       1.356840   -0.404154   -1.755532
H       1.048871   -2.973182   -1.133052
H       2.266637   -3.340683    0.738071
H      -1.018736   -2.874914    0.429289
H      -1.198068   -0.618284    1.692541
H       1.491425   -1.329075    2.040020
