16

C      -0.172907    1.608513    0.544338
O      -0.157893    0.177278    0.628458
C      -0.917422   -0.459855   -0.285043
O      -1.585784    0.097510   -1.117553
C      -0.778547   -1.942970   -0.100223
O      -1.843684   -2.747583   -0.591525
C      -0.590589   -2.855890   -1.256327
C      -0.515355   -2.410504   -2.692147
H       0.488939    1.959253    1.335897
H       0.187081    1.940380   -0.432765
H      -1.185827    1.990571    0.693223
H      -0.372406   -2.236210    0.865842
H      -0.055222   -3.779750   -1.025346
H      -1.041200   -1.466399   -2.834927
H       0.530367   -2.295687   -2.997009
H      -0.969218   -3.170577   -3.336525
