17

C      -0.113040    1.455447    0.033004
O      -0.045937    0.045396    0.140443
C      -1.283999   -0.613753    0.020718
C      -1.681949   -0.851804   -1.432449
O      -2.869469   -1.647680   -1.498137
C      -3.080192   -2.679833   -0.647584
O      -4.002860   -3.419627   -0.804649
O      -2.243381   -2.833522    0.402643
C      -1.117697   -1.984201    0.655817
H       0.898201    1.832323    0.198710
H      -0.451810    1.784947   -0.958832
H      -0.783342    1.883847    0.792037
H      -2.083993   -0.056101    0.532070
H      -1.920275    0.071779   -1.963730
H      -0.860682   -1.354813   -1.958532
H      -0.211990   -2.455588    0.256253
H      -1.023151   -1.917583    1.741565
