18

C      -0.121715    1.560403    0.012236
C      -0.054271    0.031019    0.002593
C      -1.442761   -0.620060    0.012462
C      -1.357030   -2.135265    0.002718
O      -2.714339   -2.653202    0.012952
C      -2.826353   -3.977434    0.007147
O      -1.934801   -4.781675   -0.005643
C      -4.245658   -4.361001    0.018786
N      -5.343243   -4.719604    0.027979
H       0.879819    2.000148    0.004915
H      -0.659290    1.938023   -0.864152
H      -0.641817    1.927653    0.903448
H       0.500707   -0.306835   -0.882218
H       0.518014   -0.317138    0.872254
H      -2.001872   -0.299310    0.899504
H      -2.019221   -0.288967   -0.859547
H      -0.849555   -2.516909   -0.888819
H      -0.832233   -2.527325    0.879579
