18

C      -0.105533    1.544102   -0.069845
C      -0.056038    0.030842   -0.158366
O      -1.354019   -0.474836    0.186208
C      -1.424570   -1.835474    0.178375
C      -1.640751   -2.661784   -1.105424
C      -2.636298   -2.723492    0.019120
N      -2.146546   -3.574457    1.111477
C      -0.970740   -2.807967    1.272030
O      -0.022470   -2.932776    1.992822
H       0.868315    1.968297   -0.331345
H      -0.855747    1.946898   -0.756400
H      -0.361442    1.861763    0.944624
H       0.203961   -0.298938   -1.175198
H       0.690302   -0.383975    0.530848
H      -1.921922   -2.046679   -1.956262
H      -1.024034   -3.524962   -1.338853
H      -3.677335   -2.437186   -0.040112
H      -2.121993   -4.586967    1.050138
