22

C      -0.111217    1.284791    0.363431
C       0.115123   -0.194444    0.041388
C       0.741260   -0.485472   -1.332804
C       0.942763   -2.014568   -1.479499
C       1.820369   -2.429783   -2.567424
C       2.565094   -2.790106   -3.440224
N      -0.139498   -0.013546   -2.399890
C       0.041105    1.357355   -2.872885
C       0.454583    0.208439   -3.717814
H       0.819240    1.858850    0.287130
H      -0.843903    1.737088   -0.309163
H      -0.485090    1.398904    1.385787
H       0.770615   -0.630374    0.805692
H      -0.839180   -0.732356    0.101646
H       1.733088    0.001430   -1.385497
H       1.348896   -2.403892   -0.537925
H      -0.046847   -2.470085   -1.607308
H       3.213921   -3.109250   -4.217618
H      -0.871698    1.906893   -3.085450
H       0.835959    1.953401   -2.428094
H       1.520295    0.031726   -3.832163
H      -0.151426   -0.106145   -4.562358
