17

C       0.005079    1.412758   -0.052671
C       1.449335    1.947673    0.055350
C       2.093829    0.704712    0.596988
O       3.424376    0.484636    1.018295
C       2.360768    0.338874    1.986857
C       1.856543   -1.069663    2.189185
O       1.438268   -1.533686    0.900768
C       1.395164   -0.484520   -0.035700
O       0.096643    0.004587   -0.331670
H      -0.534807    1.571281    0.891280
H      -0.568426    1.880210   -0.857453
H       1.854406    2.203777   -0.929361
H       1.533838    2.818364    0.708007
H       2.369094    1.056502    2.801939
H       2.618428   -1.759527    2.567584
H       1.013718   -1.057699    2.895183
H       1.837001   -0.876367   -0.958882
