23

C      -0.142328    1.538928   -0.304019
C       0.026739    0.072372    0.114383
C      -1.295671   -0.664811    0.165444
C      -1.819705   -1.450228   -1.031872
O      -1.010519   -1.630134   -2.160415
C      -1.411510   -2.169836    0.230211
C      -0.188861   -3.059254    0.256364
O      -2.470316   -2.580932    1.059944
C      -3.136179   -3.754987    0.636682
H       0.820407    2.058907   -0.326643
H      -0.589120    1.619899   -1.301618
H      -0.797310    2.076076    0.390403
H       0.703568   -0.427094   -0.585512
H       0.510146    0.028823    1.098380
H      -2.073968   -0.160804    0.734036
H      -2.888947   -1.392480   -1.234556
H      -0.979107   -0.796345   -2.641672
H       0.569645   -2.706379   -0.442731
H       0.238393   -3.088142    1.263903
H      -0.442650   -4.083337   -0.035076
H      -4.010200   -3.871562    1.282356
H      -3.470913   -3.679493   -0.407746
H      -2.509576   -4.652164    0.734916
