21

C       0.017455    1.549219   -0.028492
C       0.021166    0.030392    0.173821
C      -1.361257   -0.593567    0.000088
C      -2.019613   -0.629456   -1.423532
C      -2.218167   -2.152624   -1.285019
C      -0.871562   -2.810032   -1.079755
C      -1.504093   -2.119747    0.089536
C      -3.378760   -2.868456   -1.688664
C      -4.373450   -3.451919   -2.036151
H       1.018809    1.971007    0.101209
H      -0.327488    1.815484   -1.033578
H      -0.647554    2.042299    0.689357
H       0.727593   -0.431011   -0.527369
H       0.392810   -0.206442    1.179560
H      -2.056801   -0.119095    0.700816
H      -2.959807   -0.078861   -1.474336
H      -1.386038   -0.324876   -2.263545
H      -0.896456   -3.893652   -1.044077
H       0.004586   -2.398299   -1.574963
H      -1.778420   -2.669471    0.982180
H      -5.246661   -3.971736   -2.342467
