19

O       0.134940    0.986688   -0.822965
C      -0.015129   -0.380603   -0.462802
C      -1.406213   -0.541776    0.127537
C      -2.559343   -0.441336   -0.907855
C      -2.730066   -1.999568   -0.883822
C      -2.127922   -2.707099   -1.995370
C      -1.570306   -3.318620   -2.871211
C      -1.825352   -2.019124    0.410629
O      -0.850613   -3.013610    0.537387
H       1.001242    1.096045   -1.225598
H       0.107224   -1.033246   -1.341141
H       0.733290   -0.688348    0.282558
H      -1.492657    0.130800    0.985335
H      -3.445640    0.065144   -0.521087
H      -2.294738   -0.005004   -1.871342
H      -3.751486   -2.358030   -0.728365
H      -1.117881   -3.848514   -3.672955
H      -2.455232   -2.078344    1.302703
H      -0.569047   -3.264650   -0.352731
