18

C       0.039467    1.452948   -0.038503
C       1.279174    0.655836   -0.018783
N      -0.083675   -0.013864    0.041922
C       0.249942   -0.621214   -1.314739
C       0.658836    0.253366   -2.461681
C       1.648032   -0.015870   -1.357973
C       2.577826   -1.199360   -1.485392
O       1.758017   -2.281373   -1.955530
C       0.435916   -2.113782   -1.422602
H      -0.245099    1.926667    0.897041
H      -0.291058    1.993310   -0.918054
H       1.945671    0.637136    0.837666
H       0.852144   -0.300951   -3.374441
H       0.247608    1.240396   -2.630637
H       3.388959   -1.089899   -2.211522
H       3.020237   -1.429757   -0.502749
H       0.337501   -2.554192   -0.419420
H      -0.242914   -2.630972   -2.107184
