20

O       0.094059    1.434978    0.096213
C       0.046585    0.011412    0.038276
C      -1.391848   -0.519938    0.103896
C      -1.418661   -2.031127   -0.157786
C      -0.851770   -2.357723   -1.532009
C      -1.007741   -3.742041   -2.056412
N      -1.769013   -2.645682   -2.670496
C       0.337832   -1.549692   -1.904761
C       0.760408   -0.508538   -1.186363
H      -0.299795    1.767103   -0.718655
H       0.588102   -0.306152    0.940642
H      -1.831850   -0.276235    1.075337
H      -1.987013   -0.003199   -0.661169
H      -0.815181   -2.537910    0.607575
H      -2.435859   -2.429685   -0.065850
H      -0.238368   -4.177185   -2.689431
H      -1.530526   -4.458718   -1.426428
H      -2.729141   -2.662985   -2.332921
H       0.861408   -1.849451   -2.808725
H       1.651529    0.042546   -1.476696
