17

C       0.006511    1.466117   -0.089044
N      -0.036404    0.014817   -0.064127
C      -1.218271   -0.635617    0.135359
O      -2.275461   -0.087712    0.362410
N      -1.119777   -2.049719    0.072407
C       0.014679   -2.850122    0.110329
C      -0.383620   -4.153912    0.002134
C      -1.809259   -4.160802   -0.109453
C      -2.232533   -2.862239   -0.057071
H       0.985627    1.810135    0.253879
H      -0.182826    1.872267   -1.090511
H      -0.765210    1.841995    0.582634
H       0.710317   -0.487081   -0.514467
H       0.991447   -2.429284    0.280780
H       0.268570   -5.013976    0.015169
H      -2.444124   -5.026930   -0.215313
H      -3.208478   -2.410984   -0.103046
