17

C      -0.019635    1.541441   -0.000814
C      -0.006163    0.012039   -0.009521
O      -1.334687   -0.507145    0.035551
C       0.722390   -0.523044   -1.247104
O       0.802167   -1.948869   -1.241882
C       1.034069   -2.513894   -0.029433
N       1.042172   -1.980935    1.114181
C       0.698246   -0.568110    1.225289
H       0.992954    1.957143   -0.014860
H      -0.556067    1.931009   -0.874492
H      -0.531189    1.902115    0.895929
H      -1.783226   -0.266271   -0.782432
H       0.193754   -0.253128   -2.167673
H       1.736842   -0.105777   -1.301331
H       1.229124   -3.577339   -0.153238
H       1.608891    0.003884    1.442538
H       0.035026   -0.446622    2.088411
