11

C       0.108865   -3.755855   -0.019908
C       0.065159   -2.548703   -0.012575
C       0.017314   -1.193840   -0.004360
C      -0.033661    0.017886    0.003095
C      -0.092055    1.414889    0.011673
C      -1.137144    2.298913    0.030763
N      -0.596228    3.555899    0.030445
N       0.662409    3.499038    0.013071
O       1.046401    2.131369    0.000255
H       0.147632   -4.817642   -0.026366
H      -2.198068    2.121285    0.044147
