18

O       0.310799    0.133105    0.600708
C       0.254196    1.307079    0.322919
N       1.218714    1.989437   -0.385716
C       1.863801    3.261066   -0.121193
C       1.709654    3.960222    1.227918
C       2.626017    3.336100    2.286299
O       2.570517    1.921232    2.248024
C       3.203794    1.394434    1.099176
C       2.643215    1.962505   -0.193159
H      -0.631270    1.938388    0.532509
H       1.895123    3.916851   -0.988800
H       1.955645    5.020820    1.111150
H       0.666811    3.915763    1.558417
H       3.663771    3.674979    2.131037
H       2.321955    3.632569    3.293707
H       4.287009    1.601057    1.126965
H       3.049456    0.313347    1.133627
H       3.234791    1.748635   -1.081818
