13

N       0.156350    1.361605   -0.477233
C       0.136065    0.112711   -0.235672
N       1.168859   -0.817698   -0.166601
C       0.699739   -2.102715    0.129342
O       1.375549   -3.094187    0.247955
C      -0.781868   -1.945135    0.255834
C      -1.105586   -0.659260    0.043521
C      -2.456664   -0.050858    0.069709
O      -3.456273   -0.690642    0.298018
H       1.101723    1.710318   -0.644069
H       2.145997   -0.617385   -0.308357
H      -1.447175   -2.765087    0.483364
H      -2.481556    1.034789   -0.135770
