21

C      -0.001736    1.575409    0.068543
C       0.057363    0.072284    0.092184
C      -1.224935   -0.794445   -0.115998
C      -0.516183   -1.866792    0.708031
C       0.974030   -1.819935    0.325938
C       0.405095   -0.855994    1.341973
C       1.121828   -0.721318   -0.697994
C       1.377594   -0.776644   -2.171234
C       2.415736   -0.189827   -1.224871
H       0.961539    2.020424    0.340174
H      -0.270774    1.941558   -0.930044
H      -0.754398    1.951356    0.769774
H      -2.080715   -0.378657    0.425158
H      -1.511759   -1.019638   -1.149988
H      -0.942813   -2.750622    1.165436
H       1.631466   -2.661453    0.505357
H       0.674207   -0.648437    2.367588
H       1.587181   -1.739345   -2.626907
H       0.841322   -0.087861   -2.817695
H       2.568669    0.884824   -1.250249
H       3.321865   -0.759558   -1.042913
