20

C       0.356186    1.421274    0.230656
C       0.130408   -0.073825   -0.040316
C       0.636671   -0.517880   -1.381452
C       0.050457   -0.153629   -2.761588
C       0.460221   -1.576023   -3.283533
C       1.047169   -1.880543   -1.899948
N       2.042907   -0.859499   -1.627648
C       3.031495   -0.996857   -0.676776
O       3.642290   -2.015328   -0.445822
H       1.422160    1.669292    0.241504
H      -0.120390    2.038067   -0.538132
H      -0.065588    1.707467    1.198327
H       0.606458   -0.675648    0.743300
H      -0.943742   -0.292413    0.008281
H      -1.033367   -0.018727   -2.730090
H       0.509433    0.705001   -3.255913
H      -0.407079   -2.195469   -3.520243
H       1.171580   -1.613685   -4.111160
H       1.114899   -2.828133   -1.379334
H       3.273533   -0.029932   -0.194967
