16

C      -0.092546    1.530996   -0.004988
C       1.395456    1.917308    0.051201
C       2.265491    0.891645   -0.003166
C       1.500033   -0.352863   -0.106101
C       1.200358   -1.634352   -0.800649
C      -0.319589   -1.288275   -0.757765
C      -0.184107   -1.235459    0.757294
N       1.304528   -1.615535    0.712950
C       0.028133    0.022391   -0.040509
H      -0.642798    1.913907    0.863479
H      -0.577766    1.957179   -0.892866
H       1.694770    2.958195    0.119849
H       3.343869    0.983802    0.019276
H       1.803534   -2.301763   -1.406250
H      -1.169435   -1.564122   -1.367006
H      -0.876126   -1.513607    1.543727
