23

C       0.120700    1.022035   -0.344972
O      -0.422036   -0.051389    0.398183
C       0.479531   -0.585032    1.316949
C       0.171674   -1.952259    1.831572
C       1.375203   -1.744637    0.923655
C       1.365823   -2.316035   -0.467072
C       2.502711   -1.931384   -1.461499
C       2.498285   -3.395671   -1.975327
C       1.766740   -3.808600   -0.670462
H       0.994980    0.712333   -0.934151
H      -0.662096    1.373619   -1.021285
H       0.422221    1.853031    0.311106
H       0.885737    0.150560    2.013899
H       0.324786   -2.164732    2.883664
H      -0.690550   -2.441285    1.390172
H       2.346939   -1.770501    1.413728
H       0.391744   -2.127429   -0.928920
H       2.305428   -1.133395   -2.182292
H       3.429953   -1.695115   -0.928290
H       1.856960   -3.513805   -2.853714
H       3.462857   -3.862728   -2.187521
H       2.472833   -4.135125    0.100282
H       0.964234   -4.547340   -0.739318
