13

O      -0.029540    1.285949    0.009342
N       1.264318    1.824348   -0.000284
C       2.103437    0.825701   -0.013816
C       1.426841   -0.432079   -0.014034
C       0.074224   -0.059125    0.001085
N      -0.981044   -0.853340    0.007030
C      -0.671357   -2.152109   -0.002973
C       0.638421   -2.663431   -0.018423
C       1.721371   -1.796227   -0.024244
H       3.163693    1.037534   -0.022951
H      -1.514144   -2.838266    0.001497
H       0.787019   -3.736648   -0.025649
H       2.741901   -2.162988   -0.036111
