18

C      -0.104220    1.551826    0.100116
C       0.018811    0.053444   -0.044245
C       0.679987   -0.622021   -1.203061
C       1.302436    0.114747   -2.365327
C       1.383042   -0.649890    0.179209
C       2.564458    0.139559    0.393104
C       3.554188    0.797363    0.574398
C       1.348517   -1.904993    0.891139
N       1.294429   -2.916596    1.449755
H       0.786042    2.077700   -0.248717
H      -0.963911    1.915086   -0.472825
H      -0.260160    1.823482    1.148510
H      -0.804886   -0.502279    0.394354
H       0.256908   -1.587022   -1.466597
H       1.815952    1.025636   -2.053273
H       2.034101   -0.520776   -2.873284
H       0.531294    0.387801   -3.093386
H       4.433125    1.369508    0.742362
