17

C       0.047584    1.394888    0.015380
N       0.020620   -0.057558    0.003784
C      -1.123701   -0.647992   -0.006466
C      -2.450453   -0.042109   -0.008476
N      -3.555634   -0.728720   -0.019433
N      -3.431344   -2.050031   -0.029308
N      -2.298265   -2.772890   -0.029056
C      -1.175714   -2.115601   -0.018076
C       0.098507   -2.896164   -0.017732
H       1.086923    1.732919    0.022945
H      -0.437672    1.834757   -0.869622
H      -0.446022    1.820844    0.902579
H      -2.575511    1.033941   -0.000561
H      -4.287500   -2.578305   -0.037718
H      -0.110865   -3.966549   -0.026462
H       0.706170   -2.622300   -0.886229
H       0.697925   -2.634853    0.860300
