23

C      -0.110282    1.585537    0.103864
C      -0.072507    0.063562   -0.009692
C       0.422829   -0.382319   -1.407924
C       0.296760   -1.859775   -1.695716
C       1.082157   -2.820572   -1.203606
C       2.207925   -2.593699   -0.232364
C       1.749087   -2.632457    1.242677
C       0.560314   -1.709204    1.529170
O       0.776912   -0.394868    1.035729
H       0.889970    2.003483   -0.049402
H      -0.783391    2.017664   -0.642616
H      -0.452823    1.881301    1.098769
H      -1.087300   -0.334647    0.148112
H      -0.145129    0.178224   -2.158884
H       1.466205   -0.054320   -1.496442
H      -0.520995   -2.148945   -2.352781
H       0.869751   -3.853719   -1.473294
H       2.994646   -3.342018   -0.378530
H       2.660120   -1.613257   -0.411271
H       1.462540   -3.651655    1.534178
H       2.596906   -2.348828    1.877058
H      -0.354513   -2.129883    1.095400
H       0.408784   -1.641901    2.615531
