18

C       0.032588    1.467969    0.050571
C       0.016519   -0.026215   -0.017318
C      -0.099319   -0.781706   -1.116184
C       0.053764   -2.253387   -0.866042
N       1.444086   -2.396985   -0.255968
C       0.788851   -2.250789    1.059915
C      -0.599404   -2.646986    0.563278
O      -1.258779   -1.586954    1.236237
C       0.027153   -0.861459    1.240443
H       0.965873    1.834047    0.497518
H      -0.060547    1.912672   -0.944058
H      -0.785956    1.848067    0.674697
H      -0.224680   -0.382496   -2.116933
H      -0.144491   -2.894581   -1.724832
H       1.718907   -3.376963   -0.332000
H       1.304185   -2.633124    1.942211
H      -1.103348   -3.613052    0.641127
H       0.171881   -0.311162    2.171593
