20

C      -0.049735    1.610164    0.024765
C       0.080038    0.099303   -0.067751
C       0.825335   -0.591436   -1.192758
C       2.308398   -0.680993   -0.728481
O       3.331384   -0.982538   -1.603755
C       2.368396   -0.027400    0.638879
N       1.001465   -0.624867    0.921140
C       1.288484   -1.645915   -0.216646
C       1.182469   -3.125864   -0.115159
H       0.869581    2.134534   -0.247444
H      -0.837471    1.955481   -0.653477
H      -0.329311    1.906151    1.041901
H      -0.909222   -0.351990    0.070461
H       0.574159   -0.720783   -2.240017
H       3.460026   -0.234293   -2.197134
H       3.101705   -0.510105    1.290941
H       2.444383    1.058907    0.748001
H       0.151723   -3.444230    0.074339
H       1.517136   -3.587624   -1.049587
H       1.809258   -3.511012    0.696401
