16

C      -0.036038    1.601178   -0.037523
C      -0.005030    0.061634    0.016055
N       0.770700   -0.429705    1.158366
C       2.124055   -0.560102    1.100291
N       2.812275   -0.198765    0.081156
C       2.711470   -1.141999    2.298943
N       3.216634   -1.599337    3.232989
C      -1.347973   -0.512156    0.069817
C      -2.459432   -0.962852    0.137664
H       0.986466    1.978963   -0.099858
H      -0.591703    1.932677   -0.918554
H      -0.520628    2.006584    0.854374
H       0.510161   -0.297717   -0.883114
H       0.275679   -0.767754    1.965878
H       3.801552   -0.385466    0.217921
H      -3.439928   -1.369676    0.179177
