17

C      -0.127684    1.537039   -0.060600
C      -0.054756    0.030758    0.036475
C      -1.192629   -0.732362   -0.605797
O       1.241382   -0.536035   -0.168014
C       0.684565   -0.622669    1.155273
C       1.322048    0.121995    2.200922
C       1.836048    0.719532    3.117968
C       2.476477    1.454108    4.177410
O       2.220531    1.323539    5.352681
H       0.731253    2.004678    0.422721
H      -0.143345    1.839708   -1.112832
H      -1.043150    1.909287    0.410275
H      -1.250350   -0.489354   -1.672147
H      -1.046247   -1.810533   -0.508681
H      -2.149141   -0.462254   -0.147161
H       0.369669   -1.626132    1.440839
H       3.245736    2.171594    3.826685
