11

N      -0.090368    1.327238    0.000983
C       0.005571    0.044547    0.007299
C       1.222692   -0.764913    0.003166
N       1.230377   -2.061997    0.009965
N       0.040890   -2.666258    0.021624
N      -1.168057   -2.089228    0.027241
C      -1.190257   -0.793583    0.020478
H       0.838375    1.755706   -0.007858
H       2.197917   -0.284436   -0.006450
H       0.052738   -3.672178    0.026740
H      -2.167049   -0.320939    0.024948
