20

C       0.435070    1.293049   -0.265961
C      -0.274401    0.022630    0.196535
N       0.490412   -0.622003    1.263359
C       0.459619   -2.033441    1.551677
C      -0.081474   -3.009155    0.503636
C       0.802208   -2.833580   -0.750814
C       1.979960   -1.939788   -0.336408
O       2.978289   -1.753064   -0.988089
C       1.722245   -1.388212    1.039224
H       1.399066    1.056954   -0.727344
H      -0.173624    1.823259   -1.004292
H       0.617297    1.959995    0.581113
H      -1.247795    0.276215    0.633150
H      -0.482369   -0.621839   -0.669685
H       0.344510   -2.291625    2.601711
H       0.000233   -4.026984    0.896015
H      -1.143102   -2.833712    0.301990
H       1.205878   -3.781683   -1.117076
H       0.279995   -2.375878   -1.598163
H       2.579795   -1.109375    1.643980
