17

C       0.050717    1.473104   -0.018003
C      -0.019399   -0.022634   -0.004875
O       0.657417   -0.634540   -1.096390
C       0.523384   -1.989301   -0.700085
C       0.491036   -1.966470    0.804301
O       0.595858   -0.597689    1.163280
C      -0.804630   -2.150995    0.019868
C      -1.400438   -0.746643    0.003244
O      -2.198782   -0.409999    1.109990
H       1.078240    1.806450    0.141741
H      -0.301137    1.847723   -0.981864
H      -0.589434    1.875174    0.770169
H       1.013035   -2.710164   -1.337779
H       0.953771   -2.664726    1.485465
H      -1.393936   -3.056502    0.019330
H      -1.975268   -0.529050   -0.899022
H      -1.632733   -0.498981    1.887712
