21

C      -0.422827    1.522461   -0.032036
C      -0.025526    0.046496   -0.033753
C       0.778936   -0.441603   -1.271784
C       1.915713   -1.286423   -0.646149
O       1.411643   -1.665110    0.621213
C       0.877575   -0.433253    1.131786
C       2.077543    0.467339    1.465386
C       2.976720    0.637739    0.228346
O       3.126749   -0.574915   -0.505138
H       0.439689    2.184188   -0.158652
H      -1.120845    1.735667   -0.847855
H      -0.919813    1.797788    0.904718
H      -0.941106   -0.550656    0.031694
H       0.167828   -1.064652   -1.928512
H       1.180075    0.377502   -1.874592
H       2.170459   -2.192457   -1.197523
H       0.304617   -0.666944    2.032716
H       1.761942    1.448074    1.837193
H       2.639945   -0.026599    2.264008
H       2.575227    1.424475   -0.427939
H       3.986223    0.943150    0.516571
