25

C       0.428846    0.501576   -0.948147
C       0.162217   -0.287638    0.336932
C       0.543923    0.501572    1.584925
O      -1.222252   -0.608280    0.465388
C      -1.677585   -1.759297   -0.235337
C      -1.369583   -3.042973    0.536691
C      -3.192829   -1.573246   -0.453536
C      -3.527352   -0.293158   -1.213671
O      -3.748570   -2.721118   -1.090866
H       1.495970    0.725600   -1.048780
H       0.122313   -0.059688   -1.835932
H      -0.123342    1.446776   -0.933569
H       0.751907   -1.216553    0.312207
H      -0.056649    1.414548    1.651539
H       0.361314   -0.092727    2.483944
H       1.600649    0.784308    1.558939
H      -1.203497   -1.808287   -1.231697
H      -0.292090   -3.200061    0.641487
H      -1.806527   -2.986823    1.539006
H      -1.797648   -3.904182    0.019295
H      -3.667501   -1.542278    0.534846
H      -3.065936   -0.303311   -2.210523
H      -4.609638   -0.202650   -1.340126
H      -3.151841    0.581767   -0.680252
H      -3.480057   -2.697411   -2.016127
