17

O      -0.327821    1.345463    0.033404
C      -0.113176   -0.063597    0.031306
C       0.621167   -0.492847   -1.161203
C       1.252120   -0.831283   -2.137701
C       1.959379   -1.211562   -3.235993
C       2.587778   -1.548603   -4.210452
C       0.573857   -0.558737    1.305204
C       1.622728    0.272103    1.992574
C       0.261988    0.093130    2.623641
H       0.486961    1.765948   -0.261828
H      -1.120842   -0.499029   -0.004785
H       3.139195   -1.845827   -5.067741
H       0.725750   -1.634003    1.307931
H       2.475284   -0.238242    2.425562
H       1.850617    1.251785    1.586782
H      -0.401307    0.950007    2.604098
H       0.171697   -0.539366    3.499469
