23

C      -0.161020    1.566582   -0.065973
C      -0.063154    0.054523   -0.166289
O      -1.309172   -0.501000    0.241446
C      -1.354609   -1.876103    0.165025
C      -1.567447   -2.603707   -1.133032
C      -2.586125   -2.741879   -0.016463
C      -2.086641   -3.709430    1.071842
C      -1.927039   -5.185931    0.731584
C      -0.797559   -2.824575    1.237607
H       0.781424    2.030983   -0.371558
H      -0.959766    1.942734   -0.711681
H      -0.380924    1.870417    0.961437
H       0.163116   -0.257758   -1.197177
H       0.747427   -0.324490    0.475320
H      -1.896249   -1.965048   -1.946852
H      -0.938183   -3.436362   -1.438817
H      -3.616391   -2.440918   -0.164973
H      -2.708801   -3.609153    1.966610
H      -1.317429   -5.331906   -0.166137
H      -1.443233   -5.727293    1.552095
H      -2.900568   -5.654950    0.550930
H       0.160654   -3.305933    1.013829
H      -0.739868   -2.355098    2.222275
