9

O       0.043885   -0.070778    0.002571
C       0.010771    1.119417    0.006270
C       1.187738    1.980188    0.000656
N       2.170430    2.587062   -0.004342
N      -1.217429    1.853675    0.016402
N      -1.298190    3.193803    0.021057
N      -2.548953    3.455683    0.028884
N      -3.254458    2.272559    0.031191
N      -2.435534    1.290396    0.022952
