20

C      -0.032264    1.563339   -0.027956
C      -0.008836    0.026526   -0.003999
C      -1.455555   -0.514571    0.035292
C       0.793714   -0.570333   -1.201330
C       1.581999   -1.779862   -0.643983
C       1.613977   -1.489475    0.847281
C       0.761596   -0.513061    1.182775
C       2.431331   -2.220816    1.751849
N       3.112096   -2.832960    2.462157
H       0.981335    1.975845   -0.009757
H      -0.529150    1.925852   -0.934441
H      -0.577497    1.965659    0.832727
H      -2.025653   -0.138117   -0.820996
H      -1.472980   -1.608342    0.003320
H      -1.971958   -0.197938    0.947585
H       0.143779   -0.842576   -2.037064
H       1.499449    0.180795   -1.569536
H       1.076446   -2.735335   -0.831402
H       2.584035   -1.868416   -1.073767
H       0.592416   -0.164209    2.195871
