23

C      -0.166659    1.538927    0.077346
C       0.163549    0.056009   -0.132930
C       0.828586   -0.553833    1.085377
C       0.017347   -1.111843    2.231290
O      -1.369235   -1.082125    2.086801
C      -2.036785   -1.978897    2.951575
C       0.865952   -2.036791    1.371177
C       0.227289   -3.045711    0.445608
O       2.096087   -2.444846    1.922572
H       0.735138    2.118224    0.304601
H      -0.625347    1.972361   -0.817012
H      -0.864188    1.662112    0.911329
H      -0.757470   -0.484027   -0.367421
H       0.827180   -0.057809   -0.999472
H       1.734968   -0.043173    1.402350
H       0.373311   -0.926327    3.246750
H      -3.108701   -1.859683    2.776426
H      -1.755427   -3.023427    2.755788
H      -1.821695   -1.754139    4.007284
H      -0.769047   -2.727773    0.133085
H       0.844083   -3.201925   -0.445300
H       0.123738   -4.013945    0.951787
H       1.928749   -3.214856    2.478321
