23

C       0.257617    1.553158    0.074915
C       0.232191    0.026858    0.106821
O      -1.003936   -0.458215    0.627903
C       0.502000   -0.589037   -1.282156
O       1.620300    0.077895   -1.882342
C       2.673021   -0.843835   -2.161850
C       2.386182   -2.071510   -1.303475
C       0.848505   -2.102806   -1.314095
C       0.218647   -3.009510   -0.257697
H       1.225444    1.919753   -0.270712
H      -0.507271    1.936420   -0.613593
H       0.050427    1.950036    1.072570
H       0.993607   -0.328943    0.811852
H      -1.711411   -0.045279    0.120121
H      -0.388509   -0.388421   -1.899870
H       2.670314   -1.104049   -3.231835
H       3.626385   -0.355059   -1.935960
H       2.834069   -2.986554   -1.699858
H       2.759158   -1.927275   -0.282357
H       0.538674   -2.468782   -2.302293
H       0.515467   -2.724076    0.755263
H      -0.872158   -2.976351   -0.294944
H       0.537916   -4.044477   -0.421749
