15

O       0.513317    0.636769   -0.837819
C      -0.126421    0.271883    0.360362
C      -1.456015   -0.408953    0.144716
C      -1.958423   -0.820305   -1.032563
C      -3.272303   -1.465208   -1.126356
O      -3.770077   -1.846001   -2.175423
C      -3.926022   -1.607068    0.182709
C      -3.333330   -1.166062    1.300944
O      -2.118412   -0.563489    1.322508
H      -0.018309    1.315491   -1.267544
H       0.550635   -0.419033    0.876830
H      -0.280299    1.125385    1.039143
H      -1.373681   -0.685433   -1.933296
H      -4.900201   -2.077396    0.233030
H      -3.747026   -1.234102    2.299503
