17

C       0.072633    1.438161    0.071164
N      -0.049636    0.003050   -0.053772
C      -1.236856   -0.665943   -0.003885
C      -2.499390   -0.037262   -0.081907
N      -3.604940   -0.751155   -0.065254
C      -3.456483   -2.086646    0.032891
C      -4.694764   -2.934659    0.044758
N      -2.280548   -2.710314    0.127419
N      -1.163220   -1.999734    0.113567
H       1.130656    1.702953    0.035385
H      -0.424340    1.952705   -0.759685
H      -0.346338    1.824387    1.011879
H       0.752102   -0.572279    0.153128
H      -2.597508    1.043104   -0.154724
H      -5.266068   -2.794140   -0.878692
H      -4.425098   -3.986543    0.144325
H      -5.349991   -2.648004    0.873607
