19

C      -0.119643    1.570000    0.067621
C       0.020906    0.056342   -0.011841
C       0.742146   -0.526264   -1.270892
C       0.412144   -1.982226   -1.688523
O       1.529036   -2.518287   -0.914522
C       1.783325   -1.239158   -0.381279
C       3.082180   -0.616401    0.083192
O       2.325361    0.202075    1.019727
C       1.122098   -0.600580    0.871874
H       0.857620    2.052337   -0.018145
H      -0.765490    1.944974   -0.733335
H      -0.557979    1.873857    1.024039
H      -0.949619   -0.425685    0.157967
H       1.013759    0.157289   -2.076049
H      -0.548986   -2.373342   -1.334168
H       0.531703   -2.211998   -2.751843
H       3.753887   -1.309465    0.608296
H       3.655151   -0.015847   -0.631993
H       0.851299   -1.113640    1.799090
