12

O      -0.024356   -0.028539    0.066231
C       0.038118    1.165050    0.036481
O      -1.086127    1.962819    0.000137
C      -0.706237    3.345567   -0.014281
C       0.808084    3.323917    0.009006
C       1.221502    2.061935    0.039188
C      -1.253754    4.036258   -1.177630
C      -1.688972    4.630293   -2.125622
H      -1.100681    3.806760    0.902508
H       1.395069    4.231879   -0.006255
H       2.230073    1.677001    0.062419
H      -2.082471    5.146466   -2.966898
