16

C      -0.034084    1.468294   -0.019287
N      -0.008476    0.014578    0.065528
N      -0.036648   -0.603882   -1.154776
N      -0.019573   -1.858098   -1.245031
C       0.030100   -2.717480   -0.086241
O       0.044199   -3.919365   -0.247969
C       0.059028   -2.036300    1.188603
C       0.039421   -0.682407    1.248458
C       0.067053    0.094614    2.532163
H       0.864456    1.906228    0.425020
H      -0.071395    1.716680   -1.079117
H      -0.916225    1.878114    0.481140
H       0.096634   -2.629743    2.093517
H       0.104577   -0.595754    3.375960
H       0.941556    0.751721    2.585958
H      -0.823118    0.723239    2.641150
