18

C      -0.162125    1.476781   -0.125049
N       0.095096    0.051142    0.023953
C       1.413517   -0.519797   -0.164392
C       2.548157    0.316311    0.412323
N       3.169816   -0.352519    1.561928
C       1.880953    0.323075    1.765772
C       1.787808    1.379126    2.828419
C       0.738248   -0.518952    1.194054
H       0.650264    2.129616    0.219490
H      -0.344693    1.686061   -1.183910
H      -1.071099    1.729972    0.429754
H       1.525174   -1.342785   -0.863453
H       3.109591    1.103856   -0.076538
H       3.066589   -1.364389    1.501905
H       2.724450    1.939002    2.889764
H       0.969505    2.078059    2.631218
H       1.607444    0.923925    3.809239
H       0.237838   -1.337864    1.702614
