21

C      -0.083756    1.525177   -0.047566
C       0.049037   -0.000661   -0.018620
C       0.701858   -0.539509    1.257348
C      -0.096929   -0.276538    2.565216
C       0.199196   -1.485399    3.410802
C       0.765785   -2.474738    2.702856
C       0.938424   -2.072171    1.245911
C       1.129283   -3.756427    3.180843
C       1.459552   -4.858852    3.539790
H       0.896125    2.008258    0.039165
H      -0.540357    1.865485   -0.982072
H      -0.705796    1.890007    0.776539
H      -0.942649   -0.459952   -0.132319
H       0.636718   -0.329290   -0.885552
H       1.681540   -0.057547    1.372800
H       0.185171    0.663030    3.053324
H      -1.178003   -0.203437    2.366454
H      -0.056430   -1.554036    4.461811
H       0.196167   -2.592098    0.623600
H       1.921658   -2.345126    0.849794
H       1.742918   -5.826310    3.872476
