17

C      -0.235494    1.550498    0.057749
C      -0.036342    0.041359    0.016374
O      -1.244456   -0.655630    0.244372
C       0.662369   -0.541316   -1.283899
N       1.753145   -0.990192   -0.396132
C       2.982173   -1.512405   -0.079158
C       3.067454   -1.305794    1.287957
N       1.951373   -0.662147    1.801943
C       1.204642   -0.506157    0.734214
H       0.685309    2.081345   -0.200346
H      -1.028251    1.844961   -0.636326
H      -0.526421    1.862811    1.066513
H      -1.523051   -0.478914    1.149668
H       0.104846   -1.355992   -1.749561
H       0.971609    0.198108   -2.026833
H       3.650747   -1.972882   -0.785910
H       3.883322   -1.593947    1.934498
