17

O       0.785234   -0.259652   -0.515168
C      -0.259069    0.223349    0.312820
C      -1.499945   -0.632133    0.192797
C      -2.033598   -1.243389   -1.083227
C      -1.341246   -1.180682   -2.402284
O      -1.958656   -1.055257   -3.433536
C      -1.527961   -2.139793    0.079009
C      -0.315144   -2.998389   -0.044243
O      -0.250860   -4.080036    0.490815
H       1.551836    0.311174   -0.408465
H       0.049779    0.231381    1.369864
H      -0.528545    1.256358    0.042534
H      -2.284607   -0.240630    0.836102
H      -3.112235   -1.228682   -1.204724
H      -0.239766   -1.243469   -2.392933
H      -2.312877   -2.645744    0.632483
H       0.524291   -2.596740   -0.636946
