14

O       0.007567   -0.011396    0.457331
C      -0.053477    1.125577    0.063207
C      -1.334633    1.921193   -0.089150
C      -1.176723    2.952576   -1.217124
C      -0.006711    3.881317   -0.944447
O      -0.014394    5.065355   -1.123860
O       1.099726    3.290933   -0.411480
C       1.208920    1.866117   -0.382950
H      -2.166958    1.233662   -0.255625
H      -1.526244    2.436739    0.861558
H      -1.003414    2.440665   -2.172788
H      -2.065744    3.571466   -1.340366
H       2.026736    1.631565    0.300423
H       1.489158    1.488292   -1.376900
