17

C      -0.068854    1.427636    0.035277
O       1.361796    1.629295    0.167736
C       2.002890    0.816634   -0.794090
C       2.246299   -0.704826   -0.652584
O       2.072642   -1.508140    0.473953
C       0.768062   -2.138713    0.499467
C      -0.255893   -1.031889    0.544482
C      -0.066008   -0.036253   -0.323453
C       1.026417   -0.176524   -1.356805
H      -0.535139    1.655801    0.995776
H      -0.467403    2.093713   -0.742423
H       2.723567    1.360126   -1.398416
H       3.071728   -1.048116   -1.277631
H       0.663875   -2.803894   -0.367727
H       0.749674   -2.746117    1.406328
H      -0.881814   -0.915653    1.424390
H       0.799589   -0.344031   -2.404173
