21

C       0.037973    1.599405   -0.067986
C       1.565736    1.526965   -0.123063
C       2.120905    0.917773    1.137367
C       1.547113    1.107170    2.541929
C       0.646893   -0.037488    3.034983
C      -0.725183   -0.121473    2.357894
O      -0.736740   -0.639114    1.039229
C       0.013375    0.031385    0.055913
C       1.544602    0.003643    0.088314
H      -0.380899    2.176012    0.761086
H      -0.429988    1.943176   -0.992174
H       2.186784    2.097229   -0.802854
H       3.208106    0.889573    1.116439
H       2.384376    1.216030    3.240223
H       0.990202    2.051450    2.604719
H       1.161638   -0.998506    2.916396
H       0.465149    0.096509    4.109642
H      -1.367402   -0.804941    2.922936
H      -1.206937    0.869712    2.387681
H      -0.338028   -0.395586   -0.887160
H       2.147701   -0.760740   -0.388577
