21

C      -0.054816    1.381190   -0.292088
O      -0.041776    0.003555    0.043652
C      -1.335386   -0.575564    0.081572
C      -1.670269   -1.285806   -1.275808
O      -1.007831   -0.809557   -2.416602
C      -1.217093   -2.633789   -0.647552
C      -1.303858   -1.972189    0.755913
C      -0.206172   -2.256590    1.761482
O      -0.321500   -3.624156    2.135657
H       0.984597    1.719300   -0.297170
H      -0.497854    1.555604   -1.280418
H      -0.614922    1.964156    0.453972
H      -2.060539    0.150623    0.471580
H      -2.740779   -1.267211   -1.497762
H      -0.085537   -0.695684   -2.154647
H      -1.832290   -3.514884   -0.836785
H      -0.182161   -2.865037   -0.919966
H      -2.272152   -2.176844    1.223521
H       0.772644   -2.042622    1.311003
H      -0.317251   -1.592217    2.634072
H       0.419866   -3.840297    2.708484
