16

N       0.890938   -0.048218    0.728322
C      -0.158683    0.140732   -0.101386
O      -0.320617    1.102485   -0.827751
C      -1.209734   -0.975734   -0.068903
O      -0.763132   -2.107291    0.679565
C      -1.861922   -2.709304    1.367714
C      -2.898404   -1.617163    1.503656
O      -2.348274   -0.403644    2.026132
C      -2.495321   -0.532978    0.607827
H       1.586940    0.673294    0.811359
H       0.909442   -0.857053    1.325800
H      -1.427525   -1.243799   -1.112860
H      -2.277020   -3.551638    0.793602
H      -1.491543   -3.085064    2.326560
H      -3.928277   -1.842862    1.764524
H      -3.170310    0.158116    0.115256
