21

O       0.190362    1.390472   -0.119959
C       0.086323   -0.008244    0.010518
C       0.089490   -0.634985    1.436977
C      -1.443296   -0.240740    1.492625
C      -1.351543   -0.609280   -0.014690
C      -2.087576   -0.812035   -1.354732
C      -1.218317   -2.118154   -1.518515
C      -1.058225   -2.109158    0.037222
C       0.136945   -2.139082    1.036483
H      -0.549455    1.807239    0.332551
H       0.823710   -0.412853   -0.688062
H       0.781651   -0.285392    2.203912
H      -2.117861   -0.844056    2.106433
H      -1.581111    0.813628    1.748653
H      -3.147293   -1.056083   -1.234392
H      -1.983920   -0.024802   -2.105531
H      -1.706780   -2.989274   -1.960058
H      -0.289722   -1.923899   -2.059490
H      -1.916149   -2.646506    0.456614
H       1.103983   -2.394402    0.591224
H      -0.036981   -2.822548    1.871740
