22

C      -0.123904    1.482116    0.020084
C      -0.004519   -0.029682    0.007349
O      -1.334827   -0.572972    0.059951
C      -1.429325   -1.906687    0.052543
N      -0.441947   -2.709027    0.004632
C      -0.981794   -4.074754   -0.025690
C      -2.479918   -3.973737    0.365165
C      -2.827713   -2.499037    0.068910
C      -3.795899   -1.831949    1.047823
H       0.871585    1.934339   -0.018864
H      -0.697111    1.835787   -0.841769
H      -0.623761    1.827066    0.929806
H       0.492480   -0.397290   -0.896765
H       0.565570   -0.405900    0.863572
H      -0.851762   -4.488264   -1.035240
H      -0.412758   -4.720194    0.651364
H      -3.114769   -4.683590   -0.170530
H      -2.601276   -4.167060    1.437018
H      -3.236792   -2.400134   -0.947182
H      -3.422751   -1.903811    2.075129
H      -3.926316   -0.773015    0.809442
H      -4.777308   -2.314988    1.011736
