21

C      -0.081507    1.468531    0.052765
C       0.038532   -0.025010    0.008637
C       0.922661   -0.867237   -0.909725
C       0.074997   -2.089250   -0.448977
C      -0.093078   -3.307282   -1.318484
C       0.457190   -2.228414    1.059622
C      -0.254498   -0.894473    1.238323
O      -0.595805   -0.267027    2.420529
C      -1.070181   -1.071174   -0.026744
H       0.865077    1.930184    0.358269
H      -0.349030    1.875608   -0.928848
H      -0.843784    1.776541    0.773627
H       0.741186   -0.623909   -1.962450
H       2.003980   -0.902238   -0.723424
H       0.862111   -3.832083   -1.441793
H      -0.807043   -4.015397   -0.883386
H      -0.454843   -3.036802   -2.316569
H      -0.097940   -3.045575    1.535098
H       1.521794   -2.307621    1.311363
H      -1.243665   -0.815103    2.876481
H      -2.127154   -0.998706   -0.242505
