18

N       0.131157    1.247114   -0.150377
C       0.084970   -0.098285   -0.004496
O       1.076224   -0.791490    0.156887
C      -1.307390   -0.752358   -0.018502
O      -1.137883   -2.139983   -0.117899
C      -2.096848   -0.381649    1.254634
C      -3.460646   -1.088629    1.296709
C      -4.147770   -0.899979    2.627356
O      -5.240137   -0.417468    2.781807
H       1.029849    1.701467   -0.168086
H      -0.687025    1.787559   -0.370707
H      -1.862923   -0.391979   -0.898954
H      -0.185923   -2.280390    0.031624
H      -1.496649   -0.676190    2.124806
H      -2.232870    0.705193    1.309547
H      -4.125026   -0.733331    0.503160
H      -3.283786   -2.162061    1.149835
H      -3.548029   -1.247859    3.502205
