24

C       0.011041    1.589337   -0.111046
C       0.018208    0.060097   -0.052672
C      -1.393097   -0.528290    0.014448
C      -1.377705   -2.057517    0.078767
O      -0.324005   -2.675768    0.127560
N      -2.582619   -2.713912    0.071740
C      -3.887425   -2.082250    0.078131
C      -2.566690   -4.176492    0.111973
C      -2.562749   -4.740447    1.535528
H       1.029651    1.986331   -0.159527
H      -0.529162    1.955116   -0.991987
H      -0.471315    2.022642    0.772899
H       0.533835   -0.350894   -0.926415
H       0.589052   -0.286130    0.814242
H      -1.919158   -0.133159    0.894223
H      -1.978148   -0.201188   -0.855064
H      -3.800596   -0.999951    0.143798
H      -4.449269   -2.325865   -0.833907
H      -4.481496   -2.421915    0.936146
H      -3.443425   -4.533443   -0.440924
H      -1.671089   -4.508494   -0.415741
H      -2.579352   -5.834811    1.511067
H      -1.658262   -4.422255    2.059812
H      -3.434297   -4.405262    2.107868
