21

C       0.005815    1.527422   -0.007375
C       1.516060    1.855665   -0.020290
C       2.099393    1.527140    1.373425
C       1.879116    0.045079    1.759817
C       0.484861   -0.507166    1.378498
C       0.029072   -0.017938   -0.015619
C       1.130412   -0.305099   -1.032469
O       1.174621    0.594456   -2.149330
C       2.043346    0.845198   -1.035338
H      -0.499861    1.930951    0.874347
H      -0.485157    1.914857   -0.900325
H       1.725627    2.894255   -0.293926
H       3.171643    1.754606    1.411480
H       1.618517    2.186224    2.106626
H       2.643895   -0.563126    1.264674
H       2.045543   -0.084326    2.834612
H       0.506918   -1.602936    1.419853
H      -0.264422   -0.186271    2.112540
H      -0.935456   -0.458707   -0.285570
H       1.456761   -1.322071   -1.236837
H       3.107359    0.757683   -1.242023
