17

C      -0.165410    1.536434   -0.038756
C       0.066173    0.031189    0.018286
N       0.814027   -0.431912   -1.149922
C       0.891423   -1.880118   -1.180220
C       1.526246   -2.423804    0.084704
O       2.028741   -3.503192    0.177208
O       1.487503   -1.613988    1.196141
C       0.856758   -0.376828    1.243692
N       0.932559    0.326532    2.284085
H       0.787869    2.062016   -0.130684
H      -0.791959    1.785457   -0.901690
H      -0.662393    1.879318    0.868793
H      -0.916886   -0.478794    0.096967
H       0.382446   -0.082875   -1.998159
H      -0.091782   -2.383615   -1.268787
H       1.505741   -2.220781   -2.016588
H       1.490113   -0.144492    2.999075
