20

C      -0.681509    1.424126    0.182369
C      -0.036047    0.047782    0.045371
C       0.661002   -0.262275   -1.304167
C       1.490385    0.794931   -2.066393
O       2.734489    0.180175   -1.670522
C       2.041890   -0.872655   -0.950782
C       2.152113   -0.815370    0.566267
C       2.157694    0.544864    1.161675
N       0.919519   -0.238703    1.146186
H       0.051047    2.231825    0.095853
H      -1.441317    1.573394   -0.591273
H      -1.165230    1.514864    1.158802
H      -0.826821   -0.702307    0.169324
H       0.015315   -0.857618   -1.951235
H       1.361867    0.772162   -3.155357
H       1.412754    1.834675   -1.726527
H       2.302637   -1.857611   -1.350118
H       2.590756   -1.659256    1.090440
H       2.576988    0.703006    2.151270
H       2.289855    1.378344    0.478523
