14

N       0.065662    1.345184    0.173552
C      -0.033575   -0.038749    0.054892
N      -1.138840   -0.740578    0.120165
C      -0.697579   -2.061061    0.089786
C       0.661009   -2.097405    0.003378
N       1.128604   -0.805277   -0.063254
O       1.178495   -3.325769   -0.133480
C       0.052201   -4.149413   -0.102752
C      -1.104370   -3.436947    0.024639
H       0.548007    1.783278   -0.603666
H      -0.863264    1.738942    0.262781
H       2.058232   -0.471032    0.126061
H       0.271480   -5.201727   -0.154987
H      -2.096505   -3.858374    0.064878
