22

C       0.128854    1.552917   -0.006172
C      -0.017085    0.037718    0.152869
C      -1.415752   -0.458552   -0.219135
N      -1.482322   -1.912712   -0.096507
C      -1.943845   -2.485148    1.146286
C      -2.795046   -2.588329   -0.094353
C      -4.115343   -1.856222   -0.192140
C      -2.729699   -3.894157   -0.824287
O      -3.676049   -4.440713   -1.332940
H       1.134508    1.883145    0.269896
H      -0.049894    1.863420   -1.041600
H      -0.583333    2.092717    0.628005
H       0.715743   -0.484732   -0.471769
H       0.198303   -0.251236    1.189334
H      -2.163686    0.057562    0.405277
H      -1.634981   -0.200578   -1.262340
H      -1.391390   -3.343285    1.522789
H      -2.329766   -1.817545    1.917131
H      -4.168552   -1.003707    0.486833
H      -4.291250   -1.501857   -1.212877
H      -4.927056   -2.546033    0.052115
H      -1.705130   -4.326174   -0.859516
