21

C      -0.480180    1.479988    0.685147
O      -0.183065    0.191100    0.206207
C      -1.334281   -0.577177   -0.065818
C      -0.897770   -1.944553   -0.562696
C      -0.235503   -2.830530    0.527896
C      -1.592869   -3.590147    0.706922
C      -2.063160   -2.969305   -0.651515
C      -1.571293   -5.031678    0.836972
C      -1.540165   -6.231342    0.923358
H       0.469107    1.989609    0.867608
H      -1.062308    2.064429   -0.045285
H      -1.051701    1.445775    1.626728
H      -1.953800   -0.672324    0.844913
H      -1.961429   -0.080108   -0.827023
H      -0.311228   -1.813617   -1.475221
H       0.534961   -3.487325    0.119707
H       0.162795   -2.316063    1.404353
H      -2.162410   -3.156940    1.535677
H      -3.082154   -2.573349   -0.679479
H      -1.936052   -3.672932   -1.476199
H      -1.515931   -7.289380    1.006339
