19

C       0.428054    1.624530   -0.259784
C       0.035952    0.170955   -0.036963
C       0.817718   -0.937409   -0.801300
N       1.098049   -1.682426    0.469891
C       2.436502   -1.333156    1.048426
C       1.803493   -0.222574    1.946984
C       0.457176   -0.560260    1.268290
C       3.075119   -2.440853    1.757330
N       3.588943   -3.298409    2.337378
H       1.506865    1.780297   -0.153546
H       0.150409    1.946729   -1.269004
H      -0.078144    2.287171    0.450505
H      -1.042279    0.062922   -0.186503
H       0.232479   -1.533367   -1.506639
H       1.722968   -0.590227   -1.315158
H       3.143369   -0.957214    0.299666
H       1.831828   -0.451989    3.012650
H       2.202814    0.781181    1.792985
H      -0.354503   -0.835761    1.946362
