19

C      -0.157559    1.549493   -0.076963
C       0.053407    0.037997   -0.049981
C       1.005348   -0.533598   -1.122709
C       1.238673   -1.961759   -0.579305
N       1.987874   -1.289889    0.561291
C       2.396001   -0.271929   -0.492122
C       0.841668   -0.563225    1.197472
C       1.311065    0.429385    2.161812
N       1.660100    1.227297    2.921555
H       0.785983    2.101628   -0.050462
H      -0.692990    1.838988   -0.986816
H      -0.751707    1.881024    0.779750
H      -0.923113   -0.453628   -0.113729
H       0.764452   -0.317056   -2.164812
H       0.377448   -2.566345   -0.277733
H       1.935814   -2.562204   -1.166393
H       3.228376   -0.668728   -1.075702
H       2.647452    0.718739   -0.106837
H       0.229998   -1.289171    1.740337
