21

C      -0.142180    2.162622   -0.432916
C      -0.002293    0.663977   -0.606672
C       0.765495   -0.077287   -1.652956
C       1.959865    0.496180   -2.380326
N       2.414041    1.849022   -1.973167
C       3.056307    0.657962   -1.392580
C       2.511966    0.236192   -0.023199
C       2.691169    1.251548    1.104448
N       1.112108   -0.230058   -0.220061
H       0.729002    2.716508   -0.768468
H      -1.009080    2.497092   -1.015343
H      -0.351079    2.396595    0.617169
H      -0.934838    0.166528   -0.330757
H       0.311749   -0.938583   -2.141921
H       2.142384    0.173501   -3.399638
H       3.009446    2.230900   -2.704314
H       4.096592    0.455088   -1.631699
H       3.063153   -0.672915    0.254667
H       2.291941    2.229317    0.831939
H       2.185663    0.905085    2.010206
H       3.754582    1.371750    1.336377
