21

C       0.731281    1.390496   -0.004871
C      -0.044486    0.075828   -0.034009
C       0.295520   -0.813709   -1.246726
C       1.374172   -1.714169   -0.681247
C       2.211908   -2.625282   -1.456628
O       2.736845   -1.380111   -0.977968
C       0.985830   -1.904651    0.779789
C       2.138945   -2.129628    1.744064
O       0.288366   -0.704738    1.128195
H       1.803937    1.209726   -0.125496
H       0.398583    2.054310   -0.810392
H       0.570682    1.898595    0.949977
H      -1.120148    0.286295    0.011321
H      -0.572051   -1.412617   -1.544002
H       0.645193   -0.251022   -2.114353
H       2.628062   -3.516136   -0.987225
H       2.080362   -2.694023   -2.536059
H       0.281743   -2.751997    0.843642
H       2.879885   -1.334130    1.646424
H       1.762010   -2.144127    2.769846
H       2.628472   -3.089029    1.547276
