23

C       0.131416    1.606544   -0.318728
C      -0.031307    0.103508   -0.055198
C      -1.482542   -0.434741    0.058182
C      -2.331315   -0.135922   -1.215362
C      -3.294338   -1.326634   -1.320075
C      -2.407488   -2.520506   -0.935450
C      -1.517875   -1.984075    0.210018
C      -2.171191    0.246916    1.237546
O      -2.589188   -0.296053    2.228556
H       1.187917    1.847781   -0.470952
H      -0.409879    1.920359   -1.216851
H      -0.222685    2.218901    0.515635
H       0.446076   -0.452636   -0.871869
H       0.515525   -0.168413    0.856405
H      -2.839939    0.833243   -1.173193
H      -1.669830   -0.110717   -2.090322
H      -4.109927   -1.213637   -0.595137
H      -3.747996   -1.421429   -2.310779
H      -2.979853   -3.405413   -0.643962
H      -1.789449   -2.806568   -1.795160
H      -0.510573   -2.408316    0.177556
H      -1.941622   -2.231227    1.186528
H      -2.285943    1.348140    1.117556
