17

C      -0.532485    1.403584    0.122207
C       0.360537    0.182946   -0.164637
C       1.011398   -0.345007    1.029583
C       1.541613   -0.768312    2.022558
C       2.186818   -1.282759    3.241696
C       1.886220   -2.708827    3.456886
C       1.631200   -3.865206    3.649654
C       3.639543   -1.038025    3.234164
C       4.820340   -0.825852    3.244617
H       0.052250    2.220212    0.554108
H      -0.994918    1.761736   -0.802202
H      -1.326979    1.147102    0.828180
H      -0.238163   -0.611258   -0.628457
H       1.127124    0.452201   -0.902307
H       1.769423   -0.730458    4.099053
H       1.409712   -4.891079    3.811794
H       5.866528   -0.643480    3.245868
