17

C       0.088948    1.433602   -0.233902
C       0.013142   -0.040400    0.185807
C      -1.391005   -0.601079    0.093709
O      -2.348244    0.033274    0.897061
C      -1.975662   -1.215218   -1.139615
O      -0.948698   -1.898880   -1.901699
C      -0.754976   -2.799966   -0.851010
O      -0.053877   -3.756661   -0.848656
C      -1.725337   -2.105041    0.061335
H       1.118717    1.796029   -0.176980
H      -0.256874    1.571775   -1.263809
H      -0.511016    2.075898    0.420926
H       0.680831   -0.632088   -0.444945
H       0.356780   -0.154145    1.220035
H      -2.415501    0.951146    0.611248
H      -2.892696   -0.948444   -1.645809
H      -2.390109   -2.545307    0.789138
