22

C       0.005499    1.393778    0.045773
O       0.003202   -0.011058    0.003737
C       0.662586   -0.597331    1.104946
C       0.614296   -2.127592    0.978602
C      -0.848889   -2.605564    0.971703
C       1.327511   -2.568389   -0.312284
C       1.345569   -2.704794    2.201400
O       1.322556   -4.122739    2.124312
H       1.028887    1.802506    0.036393
H      -0.524365    1.750038   -0.841186
H      -0.505793    1.777918    0.943263
H       1.711411   -0.251933    1.143598
H       0.180263   -0.278187    2.046397
H      -1.385192   -2.179274    0.121121
H      -0.894416   -3.695147    0.913693
H      -1.366776   -2.294509    1.886830
H       2.370293   -2.229267   -0.318885
H       1.327702   -3.657289   -0.395451
H       0.830742   -2.142805   -1.186882
H       2.382914   -2.331339    2.219007
H       0.851419   -2.355776    3.123329
H       1.786457   -4.472612    2.889756
