19

C       0.671069    1.338785    0.204654
C      -0.162318    0.109559   -0.159844
C       0.405381   -0.699350   -1.339377
C       1.457233   -1.617135   -0.663370
O       2.751173   -1.068574   -0.703999
C       0.922549   -1.693035    0.807366
O      -0.208557   -0.848736    0.901039
C       1.477582   -2.988926   -1.302190
O       2.486828   -3.474142   -1.753044
H       1.726936    1.081687    0.324833
H       0.595250    2.095410   -0.583334
H       0.303278    1.774941    1.137528
H      -1.200389    0.408401   -0.337494
H      -0.395838   -1.296820   -1.787470
H       0.877224   -0.097586   -2.117562
H       3.302250   -1.728063   -1.156156
H       0.612200   -2.700089    1.110827
H       1.745624   -1.370353    1.456731
H       0.506867   -3.524979   -1.328139
