18

C      -0.066171   -1.154224    0.460883
C      -0.030857    0.006599    0.151197
C       0.035806    1.422010   -0.212384
C       1.437282    1.975125   -0.166475
C       2.079020    2.629567   -1.138365
C       3.469977    3.068869   -0.727570
C       3.553686    2.619826    0.728442
N       2.566148    3.276180    1.613049
C       2.288056    1.915772    1.063306
H      -0.107989   -2.181305    0.726590
H      -0.385751    1.566372   -1.214004
H      -0.603864    1.992506    0.477026
H       1.658430    2.863369   -2.110778
H       4.244334    2.589017   -1.340724
H       3.607290    4.152313   -0.827223
H       4.506898    2.318203    1.148692
H       2.889348    3.172785    2.574201
H       2.229715    1.072578    1.742619
