20

C       0.020701    1.474333    0.343444
C      -0.016689    0.024229   -0.161560
C      -1.411753   -0.547889   -0.198805
N      -2.099493   -0.932975    1.059892
C      -1.762365   -1.968169    0.026213
C      -2.928160   -2.281135   -0.855942
C      -3.307251   -1.192076   -1.525703
C      -2.451320    0.021396   -1.188037
O      -3.203476    1.087784   -0.629820
H       1.036551    1.877644    0.297810
H      -0.635425    2.115421   -0.251297
H      -0.320705    1.536821    1.382034
H       0.411627   -0.025721   -1.171076
H       0.619147   -0.608998    0.471583
H      -1.404029   -0.973626    1.805046
H      -1.018287   -2.716867    0.277317
H      -3.403523   -3.254352   -0.891824
H      -4.164654   -1.110237   -2.183708
H      -1.964052    0.439599   -2.077394
H      -3.464089    0.767548    0.246178
