18

O      -0.100554    1.334048    0.347651
C       0.048200    0.016202   -0.143446
C      -1.288138   -0.698895   -0.242452
O      -2.092993    0.073157   -1.137309
C      -3.403930   -0.392734   -1.255989
C      -4.240513    0.365652   -2.321963
N      -4.431831   -0.925761   -2.991910
C      -3.614821   -1.651868   -2.161556
O      -3.220518   -2.787321   -2.173100
H      -0.790847    1.738304   -0.190504
H       0.535283    0.005727   -1.131425
H       0.697559   -0.519883    0.556116
H      -1.170634   -1.723274   -0.617271
H      -1.771162   -0.737240    0.746192
H      -3.894936   -0.482838   -0.276301
H      -5.162272    0.834998   -1.967302
H      -3.640478    1.083698   -2.888263
H      -4.868734   -1.164604   -3.869891
