22

C       0.609740    1.470060   -0.001037
C      -0.017817    0.069681   -0.032836
C       0.479450   -0.832241   -1.205149
N       1.308343   -1.930028   -0.672545
C       2.474112   -1.471307    0.102122
C       1.231880   -1.875570    0.806923
C       1.132877   -3.223088    1.486425
O      -0.118915   -3.838863    1.229150
C       0.261936   -0.782361    1.235449
H       1.696398    1.440595    0.129349
H       0.405268    2.010278   -0.931743
H       0.197290    2.062381    0.822848
H      -1.098635    0.209563   -0.136848
H      -0.370214   -1.291669   -1.720952
H       1.044136   -0.266839   -1.954873
H       3.326273   -2.146190    0.077427
H       2.739269   -0.418469    0.071225
H       1.966577   -3.861392    1.158219
H       1.204288   -3.113306    2.574296
H      -0.186003   -3.899501    0.268558
H       0.655879   -0.176079    2.058010
H      -0.652866   -1.265503    1.591643
