16

C       0.271645    1.499778   -0.132368
C       0.043750    0.033349    0.130761
O       1.189496   -0.838817    0.150418
C       0.446295   -0.669426    1.361823
C       1.175460   -0.011538    2.497062
C       2.442939   -0.609633    2.987614
N       2.453630    0.665883    2.249251
H       1.044938    1.919502    0.512874
H       0.561312    1.656249   -1.176860
H      -0.658120    2.053060    0.039658
H      -0.796323   -0.398228   -0.417097
H      -0.140910   -1.544370    1.650107
H       0.528914    0.492334    3.213599
H       2.707892   -0.539118    4.038520
H       2.809172   -1.497393    2.478577
H       2.717895    0.465134    1.285388
