18

O      -0.041534    1.399264   -0.195715
C       0.064403    0.022322    0.111357
C      -1.309599   -0.635542    0.098771
O      -1.965257   -0.347308   -1.171145
C      -2.320734   -1.666284   -1.629423
C      -2.881655   -2.343167   -0.355136
C      -1.391021   -2.170430    0.086461
C      -1.030746   -2.487843   -1.403232
H      -0.578523    1.444488   -0.996574
H       0.744476   -0.491752   -0.584807
H       0.499761   -0.049353    1.114627
H      -1.912952   -0.199560    0.905636
H      -2.850788   -1.593647   -2.577543
H      -3.652592   -1.802877    0.199478
H      -3.162111   -3.386944   -0.504231
H      -0.958575   -2.707407    0.929734
H      -1.148840   -3.546963   -1.637404
H      -0.103285   -2.099152   -1.826527
