19

C       0.798072    1.276520   -0.021234
C      -0.138818    0.074529   -0.034047
C       0.079109   -0.886951   -1.220636
C       1.083817   -1.868619   -0.646700
C       1.620973   -3.060254   -1.333111
N       2.502801   -1.908116   -1.075668
C       0.845476   -1.841351    0.834236
N       1.247519   -2.705200    1.660291
O       0.096903   -0.740123    1.141162
H       1.841507    0.957461   -0.109710
H       0.566616    1.948529   -0.854134
H       0.687667    1.833539    0.912798
H      -1.178155    0.407239    0.033983
H      -0.857199   -1.397094   -1.470574
H       0.435055   -0.372793   -2.117275
H       1.843163   -3.937926   -0.734370
H       1.290953   -3.252277   -2.351216
H       2.598097   -1.361208   -1.929771
H       0.975041   -2.453934    2.611562
