18

C       0.049703    1.573175   -0.007564
C      -0.040587    0.042633    0.009490
O      -1.417054   -0.360670   -0.007687
C       0.582465   -0.539663   -1.265860
N       0.832342   -1.964861   -1.149177
C       1.315000   -2.565116   -0.019615
O       1.714889   -3.717513    0.002471
C       1.270627   -1.714494    1.201037
C       0.651607   -0.534143    1.228547
H       1.088629    1.917367    0.002311
H      -0.447142    1.970135   -0.897492
H      -0.452268    1.988357    0.872854
H      -1.777914   -0.242725    0.877599
H      -0.114871   -0.369068   -2.090867
H       1.509281    0.010029   -1.487446
H       0.905049   -2.518954   -1.988848
H       1.732305   -2.155368    2.077405
H       0.589805    0.041154    2.151063
