19

N      -0.008735    1.350709    0.158264
C      -0.033698   -0.021000    0.003650
N      -1.138070   -0.652989    0.027376
C      -1.279290   -2.093542   -0.106238
C      -0.581412   -2.795426   -1.280113
C       0.938165   -2.913889   -1.146177
C       1.690062   -1.577796   -1.249030
C       1.394069   -0.560251   -0.168744
O       2.268481   -0.099640    0.534561
H       0.841900    1.707821    0.568887
H      -0.865535    1.739283    0.525740
H      -0.970594   -2.579306    0.833593
H      -2.354359   -2.286707   -0.193179
H      -1.005165   -3.803931   -1.360253
H      -0.836478   -2.275473   -2.212873
H       1.187437   -3.401025   -0.194591
H       1.323764   -3.568258   -1.935672
H       2.771219   -1.739291   -1.233625
H       1.433819   -1.101040   -2.206512
