12

O      -0.074703    0.026356    0.114129
C      -0.002384    1.198375   -0.079726
O       1.060128    1.930164    0.378084
C       1.024665    3.285834    0.222720
N      -0.099160    3.977859    0.342844
N       0.297602    5.253208    0.142820
C       1.627670    5.369477   -0.076943
C       2.149230    4.093831   -0.036817
H      -0.729602    1.816374   -0.627386
H      -0.388721    5.985834    0.196735
H       2.093531    6.327885   -0.242366
H       3.170722    3.784000   -0.174110
