17

C      -0.050505    1.570883   -0.281516
C       0.035352    0.074389   -0.024570
C       1.128781   -0.754529   -0.765445
O       2.373461   -0.069393   -0.422367
C       2.219416   -0.613510    0.871989
C       1.280413   -1.678066    0.496930
C       0.687471   -0.474226    1.250390
C       0.295739   -0.440216    2.659207
O       0.792092   -1.142522    3.514494
H       0.938885    2.028259   -0.211797
H      -0.454430    1.773768   -1.279373
H      -0.710051    2.056308    0.445443
H      -0.932202   -0.418605   -0.170655
H       1.061653   -1.038364   -1.812983
H       3.004892   -0.532299    1.610056
H       1.199786   -2.733962    0.710220
H      -0.497460    0.298476    2.913420
