24

C      -0.188850    0.983518   -1.802643
C      -0.003550   -0.209271   -0.887095
C       1.339971   -0.670111   -0.340473
C       1.636789   -2.162987   -0.349470
C       2.600251    0.131533   -0.631417
C       0.274727   -0.109250    0.605814
C       0.473550    1.251260    1.257785
C      -0.484252   -1.046238    1.534721
H       0.469788    1.819452   -1.556530
H       0.010226    0.708875   -2.844934
H      -1.218631    1.355757   -1.753447
H      -0.669024   -1.031381   -1.148963
H       2.106733   -2.448241   -1.298606
H       2.333754   -2.436429    0.452578
H       0.741707   -2.777525   -0.235338
H       2.436687    1.208117   -0.684569
H       3.359043   -0.047718    0.139989
H       3.033984   -0.178946   -1.589693
H       0.971405    1.979633    0.617298
H      -0.494693    1.679014    1.544746
H       1.069667    1.157546    2.173660
H       0.088458   -1.254354    2.447136
H      -1.430530   -0.585729    1.843861
H      -0.728179   -2.003629    1.070223
