17

C       0.006701    1.534281    0.067475
C      -0.007401    0.037029    0.071151
C       1.102684   -0.869462   -0.372940
C       0.573320   -0.962177    1.068285
C       1.420387   -0.795009    2.293715
C      -0.763720   -1.684093    0.963163
O      -1.244886   -2.686227    1.411684
N      -1.283870   -0.701000    0.095238
H       1.011108    1.910712    0.283258
H      -0.290067    1.931476   -0.910174
H      -0.684919    1.930363    0.817087
H       0.912118   -1.668867   -1.083927
H       2.092236   -0.425241   -0.452348
H       2.221577   -0.067854    2.126604
H       0.824215   -0.453024    3.145637
H       1.887533   -1.744780    2.574677
H      -1.806021   -0.940427   -0.742065
