16

O      -0.153000    1.320855   -0.047871
N       0.004237   -0.076879   -0.128597
C      -1.119382   -0.653626    0.026429
C      -2.458081   -0.003260    0.285467
O      -3.392281   -1.070058    0.508357
C      -2.732319   -2.316870    0.484821
C      -2.318512   -2.739669   -0.888778
O      -2.803053   -2.034611   -1.981870
C      -1.286492   -2.119897    0.071191
H       0.748829    1.636358   -0.167722
H      -2.417756    0.647327    1.167809
H      -2.780195    0.603800   -0.567867
H      -3.071020   -3.002174    1.253909
H      -2.175507   -3.800600   -1.079164
H      -3.590137   -1.563589   -1.676594
H      -0.471461   -2.736565    0.426635
