13

C       0.056870    1.485553    0.013756
C      -0.055024    0.008181   -0.060356
C      -1.123610   -0.844810    0.052222
C      -2.477457   -0.518054    0.282034
N      -3.584517   -0.235726    0.470905
C      -0.529946   -2.136689   -0.119652
O      -1.200645   -3.287946   -0.087064
N       0.760590   -2.068434   -0.315193
O       1.058475   -0.694226   -0.276211
H       0.732155    1.779838    0.823303
H       0.462097    1.887716   -0.920076
H      -0.925510    1.925088    0.193131
H      -0.572370   -4.009507   -0.229446
