13

C      -0.017438    1.522737    0.081223
C      -0.010168    0.039472   -0.012145
C      -0.037162   -0.852407   -1.060344
N      -0.015567   -2.197068   -0.672930
C       0.024555   -2.099519    0.617365
O       0.063905   -2.901499    1.687870
N       0.093869   -2.019360    2.823645
N       0.073406   -0.823641    2.432782
N       0.030673   -0.816394    1.087718
H       0.880262    1.905524    0.579630
H      -0.052791    1.947815   -0.924200
H      -0.886401    1.893263    0.636567
H      -0.072162   -0.595130   -2.108863
