19

C      -0.141142    1.441678    0.052128
C       1.451122    1.475071    0.034913
C       2.152934    0.976272    1.274025
C       2.557982   -0.294410    1.179751
C       2.193975   -0.969517   -0.133327
C       1.081685   -2.066100    0.038420
C      -0.180988   -1.218727    0.192999
C       0.025036   -0.014130   -0.334756
C       1.436995    0.175626   -0.838131
H      -0.661667    1.657128    0.988605
H      -0.537415    2.086098   -0.739685
H       1.882561    2.393916   -0.374298
H       2.297977    1.600939    2.149761
H       3.067338   -0.832835    1.973763
H       3.074553   -1.359945   -0.656658
H       1.056603   -2.744158   -0.826091
H       1.254192   -2.692481    0.921022
H      -1.017868   -1.518201    0.813684
H       1.584830    0.301711   -1.912526
