21

C      -0.023417    1.574687   -0.022797
C       0.039285    0.046489   -0.004137
C       0.766780   -0.586507   -1.208890
C       1.275731   -1.965785   -0.718977
O       2.477542   -2.387628   -1.350984
C       1.492829   -1.787184    0.769359
C       2.264405   -0.555152    1.210737
C       0.757047   -0.551822    1.205926
O       0.068335   -0.557568    2.421823
H       0.981718    2.010708   -0.042170
H      -0.564930    1.941197   -0.900971
H      -0.541351    1.957635    0.863796
H      -0.986954   -0.342671    0.038383
H       0.125512   -0.664316   -2.092320
H       1.636428    0.016117   -1.494522
H       0.490377   -2.724705   -0.865134
H       2.285428   -2.536691   -2.282387
H       1.527390   -2.662360    1.406856
H       2.728474   -0.624989    2.188366
H       2.829539    0.015403    0.481764
H       0.189002    0.303350    2.836053
