15

N       0.116423    1.356807    0.172819
C      -0.063505   -0.009658    0.050882
C      -1.228585   -0.695501    0.017201
C      -1.193041   -2.128742   -0.011062
C      -0.004052   -2.776036   -0.017563
O       0.133580   -4.120315   -0.046470
C       1.235297   -2.022365    0.002352
N       2.359191   -2.626404   -0.015636
O       1.138184   -0.648599    0.037462
H       0.967953    1.692426   -0.257042
H      -0.688999    1.902369   -0.096720
H      -2.169074   -0.161425    0.021813
H      -2.115523   -2.696854   -0.031756
H       1.095277   -4.274298   -0.048948
H       3.150946   -1.988375    0.005698
