21

C      -0.308833    1.549169    0.162047
C      -0.122234    0.030817    0.071564
C      -1.434934   -0.739301   -0.089919
C      -2.195148   -0.452474   -1.399434
O      -2.867542   -1.657962   -1.776985
C      -2.573636   -2.689823   -0.863806
C      -1.272759   -2.269836   -0.149241
C      -3.685734   -2.888271    0.160421
O      -4.561295   -2.095976    0.384373
H       0.650549    2.055821    0.303624
H      -0.764588    1.953821   -0.747764
H      -0.955659    1.818427    1.004265
H       0.539048   -0.210866   -0.771752
H       0.390319   -0.325446    0.973915
H      -2.094862   -0.495466    0.751871
H      -2.934981    0.346611   -1.289881
H      -1.502621   -0.172540   -2.206923
H      -2.455602   -3.632757   -1.415566
H      -0.410038   -2.547028   -0.764399
H      -1.146540   -2.728928    0.835531
H      -3.603545   -3.846618    0.729046
