19

C      -0.031538    1.514744    0.057902
O       1.410413    1.489292   -0.099112
C       1.396356    0.088746   -0.510354
C       2.470468   -0.796090    0.120049
C       2.075954   -1.337237    1.503983
C       0.678970   -1.994975    1.473310
C      -0.361972   -0.946426    1.117564
O      -0.980159   -0.982728   -0.197316
C      -0.010460   -0.004656    0.062397
H      -0.345180    2.032451    0.970218
H      -0.531006    1.960500   -0.813382
H       1.427162    0.027316   -1.607369
H       2.651605   -1.641339   -0.555926
H       3.405381   -0.227126    0.169635
H       2.826372   -2.058064    1.844183
H       2.070364   -0.519018    2.234786
H       0.653156   -2.793858    0.723150
H       0.445980   -2.451579    2.439815
H      -1.047729   -0.626032    1.900327
