20

C       0.102693    1.415300   -0.114483
O       0.041307   -0.000090   -0.032150
C      -1.256324   -0.561087    0.035399
C      -1.241028   -1.871429   -0.755549
C      -0.949996   -1.665580   -2.244655
O      -0.976897   -2.882853   -2.972265
C      -1.664117   -0.834475    1.506286
C      -1.858954    0.371977    2.305996
N      -2.026637    1.329085    2.932133
H       1.157333    1.673772   -0.234847
H      -0.454343    1.788882   -0.985931
H      -0.282582    1.903304    0.787557
H      -1.989572    0.128258   -0.410626
H      -0.474460   -2.528104   -0.321875
H      -2.204395   -2.382694   -0.650614
H      -1.728702   -1.037007   -2.692044
H       0.006203   -1.139490   -2.363673
H      -0.211076   -3.401996   -2.707391
H      -2.594694   -1.412382    1.528782
H      -0.885396   -1.447150    1.973178
