21

C      -0.191801    1.558550    0.064743
C      -0.029548    0.052363    0.006579
C      -1.197888   -0.725730    0.584833
C       0.692311   -0.599522   -1.163974
C       1.373819    0.174780   -2.279391
O       2.367779    1.082747   -1.804436
C       3.162297    0.498261   -0.811196
O       2.446110    0.288194    0.381362
C       1.341403   -0.558493    0.205107
H       0.683817    2.078619   -0.322767
H      -1.065812    1.871976   -0.518255
H      -0.352648    1.883654    1.098919
H      -2.116387   -0.537424    0.016494
H      -1.014601   -1.805213    0.568443
H      -1.383964   -0.434403    1.625089
H       0.302827   -1.561138   -1.486971
H       1.843884   -0.543765   -2.970159
H       0.666277    0.779755   -2.854759
H       3.585735   -0.455103   -1.176321
H       3.960140    1.204862   -0.575853
H       1.420738   -1.473295    0.789662
