16

C      -0.008769   -1.294969    0.011767
C       0.007942   -0.093567   -0.015952
C       0.032393    1.364166   -0.039411
C      -0.680164    2.016725    1.183489
C       0.141007    3.303065    1.500575
C       1.487011    3.011819    0.850913
C       1.426319    1.969285    0.030764
C      -0.465263    4.520828    0.947098
N      -0.940954    5.477670    0.505767
H      -0.025513   -2.356647    0.031132
H      -0.446853    1.698610   -0.971664
H      -1.735202    2.220420    0.998188
H      -0.607143    1.340081    2.037263
H       0.230796    3.453959    2.582384
H       2.353171    3.636883    1.028360
H       2.244880    1.581310   -0.562841
