20

C      -1.334466    2.641981    1.186440
C      -0.840384    1.397865    0.437595
C       0.317883    0.687614    1.182195
C       1.494803    1.537209    1.345472
N       2.419663    2.220511    1.460971
C      -1.974336    0.409825    0.247948
O      -2.993809    0.763216   -0.686432
C      -2.205478   -0.403409   -0.960609
C      -1.348230   -0.388844   -2.200410
H      -0.530798    3.372540    1.312262
H      -2.148860    3.112470    0.629944
H      -1.712502    2.377904    2.181151
H      -0.472463    1.706711   -0.544944
H      -0.017084    0.365046    2.175957
H       0.617935   -0.216908    0.641070
H      -2.365993    0.012851    1.190268
H      -2.755544   -1.335300   -0.811365
H      -0.818035    0.557269   -2.322932
H      -0.615214   -1.202424   -2.168350
H      -1.972730   -0.539818   -3.086897
