21

O      -0.021976    1.433597   -0.593685
C       0.006061    0.108227   -0.085205
C      -1.379212   -0.494113    0.061715
C      -2.341443    0.268434    0.958876
C      -1.945188    0.235503    2.452475
C      -2.922745    0.898815    3.306010
C      -3.747954    1.449299    3.985101
C      -1.948164   -1.170694   -1.168978
C      -1.486189   -1.998492    0.004969
H      -0.498644    1.408820   -1.430596
H       0.623942   -0.550772   -0.716361
H       0.508474    0.181973    0.885572
H      -2.394573    1.311217    0.629908
H      -3.348057   -0.150441    0.856860
H      -1.824634   -0.807236    2.773776
H      -0.967081    0.712534    2.588693
H      -4.466788    1.935362    4.596605
H      -3.014468   -1.090911   -1.351348
H      -1.344390   -1.193479   -2.071372
H      -0.575961   -2.578815   -0.106389
H      -2.242400   -2.475962    0.619402
