20

O       0.211455    1.410597    0.127488
C       0.051358    0.011977   -0.006181
C       0.772461   -0.692195    1.147418
C       0.239775   -0.514626    2.549409
C      -0.857064    0.098108    2.999801
C      -1.903158    0.834017    2.191394
C      -2.374145    0.055772    0.972961
N      -2.354566    0.732248   -0.343447
C      -1.422733   -0.377804   -0.074253
H      -0.576117    1.798456   -0.285920
H       0.527730   -0.323567   -0.944433
H       0.810231   -1.768881    0.920359
H       1.820126   -0.361960    1.132691
H       0.881193   -0.975462    3.300408
H      -1.011704    0.100713    4.076674
H      -2.764271    1.064911    2.827725
H      -1.491473    1.790986    1.857098
H      -3.212150   -0.614447    1.154574
H      -3.128127    0.433962   -0.929447
H      -1.613836   -1.332957   -0.559251
