14

O      -0.068867   -0.032098   -0.071204
C      -0.038551    1.158714    0.037488
C      -1.072633    2.293427    0.015305
C      -0.797332    2.917363    1.407869
C       0.644096    3.345048    1.046928
O       0.393314    4.293185   -0.030978
C       0.051609    3.128022   -0.781194
C       1.051791    2.222071    0.010623
H      -2.093744    2.157332   -0.328209
H      -1.409676    3.793495    1.627869
H      -0.872897    2.193518    2.223329
H       1.320415    3.714859    1.815226
H      -0.006347    3.241804   -1.860492
H       2.096719    2.069807   -0.242869
