20

C      -0.059939    1.567587    0.072173
C       0.035887    0.033842    0.046122
C       0.714071   -0.496553    1.319302
C      -1.359811   -0.579680   -0.103117
O       0.719636   -0.424135   -1.136153
C       2.065150   -0.024914   -1.311083
C       2.570554   -0.588975   -2.558056
C       3.014044   -1.039622   -3.578982
H       0.913305    2.040886    0.233617
H      -0.474249    1.938661   -0.869904
H      -0.715743    1.890044    0.886671
H       0.096370   -0.275223    2.195044
H       0.845320   -1.580847    1.256595
H       1.692785   -0.037750    1.489292
H      -1.831023   -0.226807   -1.024508
H      -1.289934   -1.669707   -0.152887
H      -1.997024   -0.307348    0.743282
H       2.160822    1.071211   -1.351077
H       2.701209   -0.368679   -0.480720
H       3.400096   -1.441124   -4.482965
