18

C      -0.084443    1.541324    0.011278
C       0.083204    0.031484    0.001857
O       1.173895   -0.490635   -0.011859
C      -1.202806   -0.788696    0.009541
C      -0.967549   -2.297787   -0.000874
C      -2.288743   -3.091742    0.007278
C      -2.083842   -4.535183   -0.002471
C      -1.890170   -5.721354   -0.010786
H       0.894097    2.022630    0.004351
H      -0.661563    1.867772   -0.861233
H      -0.644653    1.858663    0.898049
H      -1.791323   -0.486453    0.888214
H      -1.807750   -0.477006   -0.854563
H      -0.379210   -2.572971   -0.880899
H      -0.362753   -2.582454    0.864864
H      -2.879846   -2.814671    0.890781
H      -2.896366   -2.805172   -0.861873
H      -1.727069   -6.770327   -0.018061
