15

N       0.052540    1.416297    0.076021
C       0.014841    0.002408    0.013062
C      -1.152518   -0.741755    0.059849
N      -1.200248   -2.083397    0.056281
C      -0.046916   -2.699966   -0.016848
F      -0.087699   -4.034570   -0.039351
C       1.201331   -2.089989   -0.065494
C       1.243170   -0.698164   -0.036247
N       2.420745    0.028649   -0.095228
H       0.522362    1.819968   -0.729324
H      -0.875625    1.816748    0.140443
H      -2.111964   -0.229168    0.109066
H       2.104264   -2.687793   -0.105146
H       3.258512   -0.487627    0.130319
H       2.367376    0.916282    0.389068
