12

C      -0.046379    1.427816   -0.010630
N      -0.027337   -0.017525    0.044212
N      -0.185675   -0.772319   -1.080832
N      -0.124170   -2.018561   -0.723749
C       0.072669   -2.102842    0.621748
C       0.135112   -0.819543    1.116770
O       0.308331   -0.264149    2.333524
H       0.901660    1.841029    0.344370
H      -0.200616    1.703802   -1.053503
H      -0.859584    1.827562    0.601292
H       0.154973   -3.045864    1.137028
H       0.408695   -0.964483    2.986130
