13

N      -0.100955    1.315138    0.009980
C      -0.047608    0.064358    0.002895
O       1.064318   -0.740885   -0.006293
C       0.719247   -2.148116   -0.012538
C      -0.772092   -2.113109   -0.005933
N      -1.819165   -2.899900   -0.005749
C      -2.844466   -1.978379    0.003721
N      -2.488588   -0.701209    0.009196
N      -1.140700   -0.816935    0.002763
H       0.833548    1.720108    0.008185
H       1.141398   -2.613986   -0.908181
H       1.149068   -2.623777    0.874266
H      -3.884191   -2.269729    0.006594
