17

C      -0.314812   -1.089337   -0.617101
C      -0.155804    0.050265   -0.267653
C       0.030366    1.425277    0.166145
C      -0.368901    1.689788    1.653439
C       0.676264    2.668273    2.131077
C       1.679238    2.809076    1.266178
C       1.476712    1.970962    0.057218
C       2.563317    1.317530   -0.685830
O       1.897124    2.468572   -1.216100
H      -0.459478   -2.094044   -0.928754
H      -0.573779    2.079958   -0.474042
H      -1.389876    2.075768    1.739332
H      -0.334664    0.760899    2.234830
H       0.606611    3.161062    3.094212
H       2.558350    3.430291    1.387437
H       3.597315    1.474819   -0.379645
H       2.359970    0.380132   -1.199571
