24

C       0.263176    1.207596    0.015369
C      -0.153705   -0.188358    0.486280
C      -1.468924   -0.667842   -0.137540
C      -1.892437   -2.065152    0.329687
C      -3.211600   -2.512392   -0.314155
N      -3.761151   -3.815269    0.017880
C      -3.173346   -4.579516    0.822499
O      -3.706741   -5.788285    1.115698
C      -2.963804   -6.574491    2.036035
H       1.204380    1.521438    0.477540
H       0.400996    1.234227   -1.071330
H      -0.497309    1.954598    0.268879
H       0.641499   -0.907879    0.249929
H      -0.250123   -0.192861    1.580177
H      -2.265031    0.051988    0.098394
H      -1.373128   -0.663275   -1.232259
H      -1.096606   -2.783117    0.088513
H      -1.991701   -2.065339    1.423822
H      -3.989689   -1.770298   -0.085791
H      -3.103623   -2.480950   -1.407603
H      -2.229720   -4.375677    1.345464
H      -3.519039   -7.504406    2.165780
H      -1.961957   -6.807971    1.653659
H      -2.868710   -6.077362    3.009812
