21

O       0.043338    1.478590   -0.101065
C       0.070914    0.077011    0.130941
C      -1.318799   -0.540193    0.051799
C      -2.023876   -0.557990   -1.322538
C      -1.337783   -1.484652   -2.294393
C      -2.214676   -2.075137   -1.226721
C      -1.484957   -2.079646    0.102732
C      -0.528509   -3.120199    0.618104
C      -1.855900   -2.886759    1.307550
H      -0.309402    1.611456   -0.987295
H       0.757096   -0.428231   -0.566105
H       0.486167   -0.050280    1.137237
H      -1.959321   -0.058152    0.797856
H      -2.743315    0.179774   -1.656640
H      -1.757013   -1.485172   -3.295797
H      -0.262347   -1.639078   -2.264773
H      -3.097450   -2.660044   -1.457423
H      -0.403621   -4.030073    0.039594
H       0.371344   -2.791406    1.127979
H      -1.851019   -2.396305    2.276216
H      -2.627531   -3.642408    1.196941
