18

C       0.150235    1.598099    0.070305
C       0.064684    0.080716    0.025677
C       1.028583   -0.681243   -0.923631
C       1.297676   -1.743471    0.209288
C       0.647836   -0.722801    1.219478
C       0.413580   -2.966949    0.028714
O       0.782391   -4.107099    0.072783
C       2.686086   -2.102276    0.449027
N       3.801655   -2.332482    0.642761
H       1.177621    1.928442    0.259236
H      -0.175457    2.039956   -0.877453
H      -0.484818    2.006186    0.863861
H      -0.969937   -0.224093   -0.164039
H       0.628236   -1.072153   -1.861936
H       1.938627   -0.116516   -1.136372
H       1.425206   -0.172600    1.753643
H      -0.048470   -1.146068    1.947147
H      -0.652831   -2.704589   -0.156030
