11

N       0.079201    1.389798    0.164719
C      -0.011870    0.023939    0.047573
C      -1.101935   -0.810857    0.010747
O      -0.621210   -2.082040   -0.040907
N       0.763448   -1.997137   -0.038048
N       1.102854   -0.775232    0.012995
C      -2.478086   -0.564474    0.013713
C      -3.656858   -0.313515    0.012090
H       0.958569    1.767318   -0.157781
H      -0.720629    1.902862   -0.175610
H      -4.698111   -0.103181    0.018225
