19

O      -0.009245    1.341986    0.300441
C      -0.059440   -0.023924   -0.102510
C      -1.477713   -0.493901    0.009552
C      -2.029701   -1.087915    1.280047
C      -1.877871   -1.959198    0.055472
C      -2.954376   -1.924956   -1.049466
C      -3.826788   -0.685509   -0.755482
C      -2.465975   -0.041051   -1.090795
O      -2.284628   -1.116181   -2.086653
H       0.862004    1.685210    0.080425
H       0.273597   -0.141829   -1.145243
H       0.592960   -0.649709    0.527742
H      -1.298436   -1.258639    2.065561
H      -3.004982   -0.811779    1.660944
H      -1.143860   -2.756601    0.041471
H      -3.353005   -2.869891   -1.417127
H      -4.537165   -0.518712   -1.564230
H      -4.302750   -0.540534    0.214426
H      -2.348575    0.963773   -1.493532
