13

N       0.100496    1.347727    0.177921
C      -0.047408   -0.008894    0.059373
C      -1.211934   -0.710722    0.020725
N      -1.210716   -2.083211   -0.023319
C      -0.079642   -2.705494   -0.035695
C       1.214504   -2.039782   -0.009431
N       2.333631   -2.633806   -0.028659
O       1.147170   -0.638577    0.036628
H       0.979480    1.716046   -0.154631
H      -0.704056    1.903034   -0.067669
H      -2.169434   -0.206110    0.032020
H      -0.059075   -3.790179   -0.070850
H       3.108723   -1.971208   -0.001607
