17

C       0.083694    1.494434   -0.036056
C       1.340361    0.686328    0.000926
N      -0.001357    0.032657   -0.015420
C      -0.199232   -0.615647   -1.351466
C       1.056059   -0.310387   -2.126933
C       1.918968    0.388488   -1.323399
N       3.061425    0.651885   -2.022982
C       2.926447    0.118488   -3.290826
C       1.686523   -0.481540   -3.388638
H      -0.287286    1.978788    0.864614
H      -0.130855    2.018700   -0.965492
H       1.922155    0.596127    0.914909
H      -0.352633   -1.689698   -1.188702
H      -1.116647   -0.225872   -1.808409
H       3.860607    1.164524   -1.694424
H       3.729131    0.195753   -4.006917
H       1.307657   -0.990950   -4.261630
