18

O       0.209415    1.423996    0.133688
C       0.031421    0.047353    0.065245
C       0.859016   -0.726858    1.131678
C       0.487740   -2.232916    0.846522
C      -0.458994   -1.945005   -0.311120
C      -1.440550   -2.309823   -1.442159
N      -1.411260   -0.778058   -1.566999
C      -1.316512   -0.687788   -0.021092
C       0.097830   -0.811610   -1.208564
H      -0.332325    1.827702   -0.553447
H       1.927576   -0.529536    1.008602
H       0.579199   -0.411481    2.140708
H       1.358447   -2.831385    0.565016
H       0.004382   -2.712821    1.701857
H      -1.046486   -2.827752   -2.322418
H      -2.422732   -2.707264   -1.166929
H      -2.212960   -0.627943    0.599567
H       0.862955   -0.897224   -1.982950
