14

C       0.023531    1.417531    0.099619
C       1.496700    1.929316   -0.078859
C       2.237195    0.630528   -0.000971
N       3.468505    0.154816    0.100738
N       3.267145   -1.165489    0.035456
N       1.985996   -1.591468   -0.092062
C       1.341949   -0.436864   -0.123445
N       0.029866   -0.018375   -0.307782
H      -0.272142    1.521616    1.152651
H      -0.686870    1.980123   -0.510588
H       1.628324    2.408778   -1.056083
H       1.762715    2.662047    0.686574
H       4.021989   -1.818872    0.153396
H      -0.693507   -0.584032    0.114697
