18

C      -0.088820    1.509211   -0.082539
C      -0.014585    0.011762    0.077995
N       1.281171   -0.625449   -0.150241
C       0.718647   -0.639613    1.209838
C       1.396319    0.060103    2.376287
C       1.085594   -0.851919    3.539556
C       0.409722   -1.954291    3.186259
C       0.172174   -1.949365    1.727432
O      -0.325008   -2.814308    1.035619
H       0.844587    1.984874    0.228847
H      -0.260857    1.768826   -1.132452
H      -0.912539    1.928337    0.505402
H      -0.889424   -0.543010   -0.258723
H       1.131442   -1.554051   -0.548067
H       2.477670    0.149890    2.217593
H       1.021630    1.074899    2.555957
H       1.396304   -0.609233    4.550265
H       0.087122   -2.759675    3.832872
