22

C      -0.097175    1.690125   -0.131848
C      -0.026688    0.160633   -0.006177
C      -1.414192   -0.494549    0.088401
C      -2.217448   -0.101837    1.323075
O      -3.403733   -0.885318    1.327199
C       0.761303   -0.444988   -1.177756
C       2.250448   -0.100175   -1.142563
N       2.881055   -0.160922   -2.353350
O       2.841977    0.192439   -0.120622
H       0.906193    2.116742   -0.209427
H      -0.668515    1.984797   -1.021179
H      -0.578463    2.147042    0.737543
H       0.539485   -0.076449    0.902655
H      -2.007901   -0.257281   -0.804606
H      -1.305248   -1.586137    0.106005
H      -1.615543   -0.285785    2.228582
H      -2.457761    0.971544    1.303176
H      -3.933128   -0.622656    2.085625
H       0.690419   -1.540877   -1.145339
H       0.325288   -0.138029   -2.137514
H       2.415627   -0.484543   -3.182861
H       3.882149   -0.053483   -2.372203
