19

N       1.247418   -0.662676   -0.092710
C       0.052414    0.057615   -0.068256
O       0.045641    1.276708   -0.029678
N      -1.100126   -0.696880   -0.027543
C      -2.384669   -0.026685   -0.199922
C      -3.399393   -0.579830    0.795415
O      -3.495345   -1.993716    0.694548
C      -2.252763   -2.604288    0.975616
C      -1.160799   -2.150330   -0.001552
H       2.025564   -0.042714   -0.264314
H       1.279458   -1.500701   -0.653762
H      -2.222904    1.041636   -0.055658
H      -2.759705   -0.192497   -1.221628
H      -3.111808   -0.293538    1.820120
H      -4.396929   -0.183358    0.587726
H      -1.934796   -2.366636    2.004391
H      -2.404247   -3.684741    0.896926
H      -1.383365   -2.551996   -1.003162
H      -0.205135   -2.556957    0.334096
