18

C       0.492418    1.307881   -0.169312
C       0.028040   -0.081126    0.121504
C      -1.386983   -0.674266   -0.008406
C      -1.040229   -1.660228    1.160336
C       0.356424   -1.039969    1.214187
O       0.945011   -1.165211   -0.095398
C       1.245254   -0.891596    2.404490
N       2.548532   -0.634257    2.095117
O       0.805173   -0.960946    3.536983
H       1.487801    1.477120    0.249286
H       0.536675    1.480193   -1.250769
H      -0.197282    2.040519    0.260746
H      -2.175032    0.034343    0.256112
H      -1.605999   -1.118625   -0.981984
H      -1.607370   -1.461919    2.070218
H      -1.062669   -2.727909    0.932615
H       2.864395   -0.790016    1.152027
H       3.216744   -0.613145    2.848062
