17

C      -0.044985    1.503323    0.053953
C       0.046881    0.004639   -0.168499
O       1.068346   -0.523447   -0.547766
C      -1.224747   -0.786520    0.099417
C      -1.019155   -2.297162    0.084379
C      -2.308818   -3.048553   -0.236136
N      -2.321226   -4.354799    0.163283
O      -3.253186   -2.535850   -0.806810
H       0.863915    1.989782   -0.301729
H      -0.920211    1.920309   -0.455485
H      -0.172091    1.711029    1.123031
H      -1.672210   -0.444663    1.040611
H      -1.960089   -0.525840   -0.673734
H      -0.278419   -2.540633   -0.687051
H      -0.595262   -2.652836    1.029610
H      -1.495248   -4.806878    0.515243
H      -3.089074   -4.931524   -0.140418
