18

C      -0.174473    1.639659    0.000947
N      -0.011273    0.192329    0.051210
C       1.211169   -0.491108   -0.329147
C       2.513160    0.211968   -0.641559
O       2.948333    1.213773    0.288787
C       2.619236    1.216495    1.603004
O       3.130260    2.027450    2.325437
C       1.609401    0.198517    2.109443
C       0.744398   -0.504460    1.084481
H       0.720900    2.237273    0.210089
H      -0.527820    1.908174   -0.999688
H      -0.955338    1.924517    0.712585
H       1.067126   -1.365963   -0.963706
H       3.304585   -0.544853   -0.724344
H       2.457129    0.731319   -1.604116
H       2.186802   -0.562869    2.650256
H       1.013442    0.711047    2.871097
H       0.237456   -1.385612    1.475232
