17

C      -0.036382    1.515826    0.074643
C      -0.004236    0.000487    0.005696
C      -1.247533   -0.627256   -0.595436
C       1.322200   -0.679059   -0.237187
C       0.694536   -0.724661    1.150950
O       1.230699    0.076519    2.162544
C       0.165292   -1.986818    1.624044
N      -0.232909   -2.998479    2.020191
H       0.851256    1.919178    0.562741
H      -0.099802    1.930970   -0.937088
H      -0.913485    1.858770    0.633433
H      -1.372001   -0.290594   -1.630396
H      -1.199368   -1.718927   -0.599320
H      -2.142071   -0.333425   -0.036252
H       1.345241   -1.594390   -0.818403
H       2.207828   -0.057260   -0.315751
H       2.030812   -0.348506    2.492631
