24

C      -0.079879    1.596619    0.033948
C       0.057369    0.071671    0.047583
C       0.689056   -0.479847   -1.234005
C       0.807653   -2.015087   -1.277008
C       1.342285   -2.502631   -2.631966
N       1.586994   -2.551305   -0.158405
C       2.987609   -2.192347   -0.002128
C       1.027299   -3.419282    0.734642
O       1.591601   -3.931326    1.679605
H       0.896860    2.081751   -0.072586
H      -0.706868    1.932848   -0.799392
H      -0.532817    1.962968    0.960170
H       0.655619   -0.236233    0.913078
H      -0.931951   -0.384362    0.187535
H       0.088891   -0.171263   -2.099509
H       1.679058   -0.029244   -1.384879
H      -0.201014   -2.427392   -1.147743
H       1.422232   -3.593346   -2.648431
H       0.666885   -2.194792   -3.435836
H       2.328806   -2.083426   -2.853377
H       3.109735   -1.114543    0.151439
H       3.360306   -2.721775    0.874783
H       3.576468   -2.487547   -0.876973
H      -0.037316   -3.615171    0.499323
