17

C      -0.105656    1.488068    0.041263
C       0.000424    0.001179   -0.038321
C      -0.021461   -0.854930   -1.110389
C       0.109654   -2.188745   -0.618037
C       0.217848   -2.101057    0.757083
N       0.149350   -0.778394    1.093473
C       0.144722   -3.389253   -1.475425
N       0.043015   -4.602234   -0.817244
O       0.286666   -3.329534   -2.684211
H       0.780113    1.941684    0.503239
H      -0.203524    1.904757   -0.963298
H      -0.979265    1.811165    0.621116
H      -0.122902   -0.585861   -2.149659
H       0.377675   -2.857419    1.508979
H       0.221019   -0.419447    2.030437
H      -0.454291   -4.635048    0.058082
H      -0.094493   -5.394694   -1.426624
