18

C      -0.005192    1.551605    0.175499
C      -0.082180    0.068443    0.042801
C      -1.144971   -0.744970   -0.043087
C      -0.695642   -2.169712   -0.125254
C      -0.545323   -2.944616   -1.483515
C       0.976945   -3.004739   -1.191039
N       0.776820   -2.094310   -0.025668
C       1.163186   -0.753543   -0.125711
O       2.276700   -0.350109   -0.384755
H       0.664223    1.960715   -0.588122
H      -0.987013    2.022359    0.085229
H       0.425733    1.831338    1.143858
H      -2.186859   -0.448689    0.002332
H      -1.147684   -2.788512    0.659826
H      -1.071939   -3.897904   -1.544348
H      -0.797923   -2.332046   -2.350501
H       1.347549   -3.986420   -0.885445
H       1.648981   -2.583642   -1.942381
