19

C       0.043397    1.515767   -0.101728
O       1.311827    1.569775    0.583001
C       1.463318    0.137658    0.513382
C       0.016805   -0.020423   -0.032700
C      -0.993627   -0.636103    0.932942
C      -0.941993   -2.138902    0.850086
C      -0.390283   -2.751535   -0.194089
C       0.177984   -1.987868   -1.355607
O      -0.105190   -0.597875   -1.316675
H      -0.744334    2.047916    0.444529
H       0.103937    1.891904   -1.130165
H       2.236584   -0.159984   -0.207023
H       1.682671   -0.304004    1.492073
H      -0.787909   -0.293353    1.954040
H      -2.000802   -0.272399    0.684021
H      -1.363778   -2.712116    1.670827
H      -0.324495   -3.834820   -0.248568
H       1.268009   -2.158515   -1.418558
H      -0.246468   -2.351769   -2.299099
