22

C      -1.441213   -0.407741   -0.288520
C      -0.021240    0.117021   -0.023279
C      -0.026385    1.642916    0.114137
N       0.681872   -0.436773    1.148224
C      -0.028920   -1.097443    2.245333
C       0.865784   -1.849288    1.332707
C       0.546619   -3.038855    0.418821
O       1.781282   -3.677297    0.800879
C       2.199906   -2.542676    1.594519
H      -2.138130   -0.084944    0.492027
H      -1.807039   -0.006694   -1.238854
H      -1.485499   -1.498522   -0.355807
H       0.606108   -0.145770   -0.885463
H      -0.620233    1.947176    0.983280
H       0.990390    2.017814    0.252377
H      -0.459668    2.114839   -0.773529
H       0.297310   -0.827216    3.247512
H      -1.097100   -1.285064    2.154002
H      -0.332319   -3.642786    0.677291
H       0.522887   -2.812120   -0.656051
H       3.070754   -2.031266    1.163902
H       2.415981   -2.822832    2.632722
