18

O       0.015973   -0.012608   -0.531688
C      -0.007502    1.124422   -0.101304
C      -1.330246    1.848410    0.139718
C      -1.422189    3.148258   -0.636787
N      -1.975128    4.323347    0.066136
C      -0.543473    4.284534   -0.280821
C       0.442784    4.145856    0.871433
C       1.474896    3.066522    0.648043
C       1.271481    1.809308    0.226625
H      -2.136896    1.161660   -0.127862
H      -1.422860    2.074896    1.207765
H      -1.668457    3.031563   -1.689945
H      -2.482395    4.916825   -0.585212
H      -0.203929    4.916123   -1.098883
H       0.946026    5.101444    1.048705
H      -0.129269    3.934995    1.782884
H       2.504460    3.350660    0.857366
H       2.127746    1.152069    0.098890
