15

C      -0.140609   -0.998876   -0.831018
C      -0.046193    0.031261   -0.218255
C       0.091297    1.307055    0.480956
C       1.451641    1.933198    0.319631
C       2.139381    2.812917    1.126214
C       3.359334    3.134689    0.467184
C       3.380100    2.439582   -0.719119
N       2.214096    1.721202   -0.800249
H      -0.239228   -1.922237   -1.346296
H      -0.694440    1.987323    0.119423
H      -0.108218    1.165726    1.549630
H       1.800438    3.186573    2.080904
H       4.131931    3.796928    0.826547
H       4.120367    2.386567   -1.500931
H       1.969291    1.066004   -1.523857
