16

C      -0.123786    1.395702   -0.085834
C       0.006973   -0.096058    0.016903
N       0.519653   -0.666173    1.025151
O      -0.504046   -0.683942   -1.111443
C      -0.525777   -2.086677   -1.156342
C      -0.484804   -2.687810   -2.522852
C       0.709939   -2.823334   -1.602029
H       0.400927    1.760644   -0.974394
H      -1.175812    1.677703   -0.193524
H       0.293363    1.860980    0.805966
H       0.544437   -1.679783    0.917944
H      -1.163790   -2.537406   -0.399745
H      -1.098893   -3.559352   -2.717231
H      -0.397083   -1.995340   -3.351887
H       1.581835   -2.220717   -1.828392
H       0.925342   -3.789256   -1.158699
