15

C      -0.069577    1.527622    0.046676
C      -0.014774    0.025858   -0.026569
C      -0.058365   -0.699960   -1.219374
C      -0.003767   -2.086748   -1.220595
C       0.096211   -2.724104    0.016064
O       0.152285   -4.070512    0.065408
N       0.140403   -2.067577    1.173445
C       0.085605   -0.754407    1.123197
F       0.132298   -0.131232    2.301122
H       0.824319    1.939421    0.526943
H      -0.146790    1.960706   -0.953834
H      -0.929161    1.870306    0.632322
H      -0.136465   -0.163710   -2.160401
H      -0.035968   -2.669082   -2.131880
H       0.218183   -4.305761    1.000645
