20

C       0.374516    1.378149   -0.333721
C       0.011652   -0.095558   -0.147022
N       0.793032   -0.727311    0.905886
C       0.228015   -1.349031    1.969368
O      -0.968428   -1.404282    2.187599
C       1.245865   -1.964914    2.972691
C       0.534748   -2.735851    4.083033
C       2.310589   -2.804895    2.284490
O       3.031405   -2.411854    1.397409
H       1.431724    1.498214   -0.594122
H      -0.220114    1.816878   -1.141085
H       0.184137    1.944915    0.582310
H      -1.035982   -0.206524    0.139476
H       0.156761   -0.640684   -1.088834
H       1.787730   -0.857291    0.774086
H       1.789454   -1.107578    3.395453
H      -0.007101   -3.594431    3.676337
H       1.254703   -3.097352    4.823966
H      -0.196154   -2.098796    4.581152
H       2.400778   -3.846863    2.661393
