21

C       0.163807    1.527062    0.018710
C       0.040652    0.008178    0.008111
C      -1.408196   -0.422407   -0.228957
C       1.028083   -0.755493   -0.974050
O       1.990604   -0.014896   -1.668082
C       1.588535   -1.550379    0.233673
O       2.758941   -0.876319    0.760638
C       1.966471   -0.241201    1.803303
C       0.657306   -0.783912    1.213159
H       1.204456    1.858796    0.042695
H      -0.280766    1.950890   -0.887612
H      -0.356591    1.958248    0.881844
H      -1.768478   -0.053527   -1.195785
H      -1.508919   -1.514050   -0.231168
H      -2.070637   -0.030975    0.551638
H       0.484557   -1.369211   -1.700407
H       2.723894    0.098888   -1.043846
H       1.726595   -2.632065    0.168847
H       2.220206   -0.661209    2.784024
H       2.109206    0.843700    1.831146
H      -0.041912   -1.261164    1.899148
