20

C      -0.013342    1.512006    0.014565
C       0.033736    0.002754    0.034740
C       0.996281   -0.814123   -0.885996
C       0.715794   -1.930397    0.145073
O       1.601875   -3.004929    0.210886
C       0.660029   -0.797098    1.218753
C      -0.779635   -2.227666   -0.089987
C      -1.299146   -0.759706   -0.171918
H       0.980089    1.946590    0.166912
H      -0.396797    1.881949   -0.943796
H      -0.670809    1.896786    0.803129
H       0.703224   -0.986233   -1.926333
H       2.027805   -0.457920   -0.832809
H       1.249919   -3.649211    0.834595
H       1.657858   -0.441023    1.485655
H       0.052809   -0.952458    2.117008
H      -0.938330   -2.796887   -1.010456
H      -1.222371   -2.791376    0.739075
H      -2.029755   -0.522708    0.608249
H      -1.756254   -0.527675   -1.139152
