19

C       0.043007    1.563721    0.052860
C       0.119136    0.043224    0.028095
C       0.713969   -0.545685   -1.311775
C       1.317733   -1.859504   -0.792632
C       2.776102   -2.392002   -0.727778
C       3.740008   -1.479418   -0.080207
N       2.800228   -2.223321    0.809398
C       1.572197   -1.468418    0.622543
N       1.025549   -0.449032    1.124886
H       1.041482    2.000163   -0.055981
H      -0.585082    1.931789   -0.765468
H      -0.377355    1.915840    0.998498
H      -0.886843   -0.367253    0.195390
H      -0.040300   -0.665963   -2.093485
H       1.489025    0.133084   -1.685673
H       0.636077   -2.710233   -0.891375
H       3.090135   -3.331523   -1.168192
H       4.765774   -1.822624    0.011832
H       3.624778   -0.401498   -0.151378
