15

N       0.039860    1.216963   -0.083824
C       0.021342   -0.036044    0.001435
C      -1.113736   -0.946526   -0.409545
O      -0.723225   -2.234330    0.050812
C       0.646867   -2.197715    0.361215
C       1.470932   -2.888562   -0.744853
C       2.896502   -2.926513   -0.437040
N       4.020781   -2.959167   -0.174528
O       1.024853   -0.834349    0.483025
H       0.925713    1.601965    0.245359
H      -2.054387   -0.659186    0.066019
H      -1.251869   -0.929981   -1.498364
H       0.811479   -2.690627    1.325220
H       1.094082   -3.909779   -0.861500
H       1.311096   -2.363559   -1.692569
