17

C      -0.080142    1.527906    0.011572
C      -0.016031    0.011251    0.004087
O      -1.342989   -0.488879    0.011460
C      -1.463765   -1.841825    0.006275
C      -0.476267   -2.807232   -0.005491
N      -1.118476   -4.030630   -0.006159
C      -2.472807   -3.850066    0.004804
C      -2.726050   -2.498172    0.012742
H       0.929505    1.949468    0.006029
H      -0.614659    1.894548   -0.869188
H      -0.601522    1.886381    0.903497
H       0.513656   -0.355812   -0.888704
H       0.526601   -0.364047    0.885605
H       0.597125   -2.738304   -0.013290
H      -0.652644   -4.919438   -0.013636
H      -3.147270   -4.691060    0.006118
H      -3.690755   -2.017086    0.022134
