16

O      -0.068666    0.007774   -0.118974
C      -0.071456    1.201596   -0.022191
C      -1.281978    2.177874    0.034810
C      -0.889923    3.360708    1.003321
C       0.195425    3.496600   -0.078898
C       1.441694    4.143098   -0.683912
O       1.947276    2.795753   -0.976877
C       1.070861    2.252367    0.058610
N      -0.846164    3.088948   -1.070564
H      -2.279109    1.742672    0.005452
H      -1.662778    4.130380    0.986841
H      -0.566682    3.125563    2.018105
H       1.303433    4.739558   -1.589870
H       2.093576    4.664299    0.027051
H       1.639183    2.115304    0.988878
H      -0.463554    2.602095   -1.885472
