19

C       0.152418    1.254588    0.334160
C      -0.060013   -0.162476   -0.192650
C       0.840158   -0.492256   -1.363952
O       1.651072    0.239587   -1.864559
O       0.602639   -1.758440   -1.804122
C       1.383113   -2.212530   -2.895583
C       2.482256   -3.200069   -2.594610
C       1.168417   -3.665092   -3.192919
O       0.270028   -4.394332   -2.416779
H       1.183033    1.397592    0.668104
H      -0.044705    1.995225   -0.444763
H      -0.515519    1.451747    1.176905
H       0.121062   -0.912447    0.586861
H      -1.096475   -0.321398   -0.513545
H       1.501844   -1.474897   -3.679181
H       3.376180   -3.176721   -3.208069
H       2.638498   -3.445965   -1.549918
H       1.159552   -3.974552   -4.234291
H      -0.184247   -3.767681   -1.841280
