21

C      -0.022417    1.569700   -0.049087
C       0.051672    0.044749   -0.021513
C      -1.336075   -0.546823    0.250472
C       0.710591   -0.678075   -1.199495
C       2.261722   -0.744112   -1.099457
C       2.976240    0.175867   -0.167116
C       2.368094    0.159341    1.024178
C       1.123915   -0.688826    0.926321
C       1.393278   -1.654285   -0.276087
H       0.951000    2.023314   -0.241933
H      -0.709225    1.894868   -0.839703
H      -0.403739    1.967145    0.899335
H      -2.051602   -0.246398   -0.523798
H      -1.309151   -1.640460    0.275627
H      -1.723442   -0.193174    1.213086
H       0.236971   -0.865507   -2.157750
H       2.749806   -1.131456   -1.986871
H       3.830295    0.778294   -0.451487
H       2.611087    0.777349    1.879830
H       0.718586   -1.083675    1.858054
H       1.422566   -2.737164   -0.276905
