23

C       0.265371    1.479651    0.301191
C      -0.172484    0.084921   -0.163767
C       0.605660   -0.448871   -1.359310
C       0.441191    0.329356   -2.651987
C       1.953855   -1.090734   -1.086753
C       0.777676   -1.940935   -1.466718
C       0.105618   -3.057259   -0.670788
O      -0.031704   -3.855992   -1.866274
C       0.607875   -2.849708   -2.681535
H       1.331705    1.493970    0.550517
H       0.093554    2.237690   -0.469094
H      -0.292165    1.785047    1.191991
H      -0.066876   -0.615835    0.673415
H      -1.243089    0.101976   -0.410273
H       0.803462    1.357825   -2.551176
H       1.000295   -0.132715   -3.471412
H      -0.612100    0.376104   -2.953831
H       2.746859   -0.961747   -1.818048
H       2.302238   -1.138369   -0.058523
H       0.730749   -3.553434    0.083874
H      -0.869151   -2.817662   -0.225181
H      -0.057544   -2.482261   -3.474482
H       1.535447   -3.221011   -3.138021
