18

C      -0.001180    1.438309   -0.080691
O       0.166082    0.048232    0.079355
C       0.643738   -0.616383   -1.080369
C       1.115529   -2.035827   -0.690939
C       0.477180   -2.945566   -1.722338
C      -0.490208   -2.156871   -2.486959
C      -0.419211   -0.867574   -2.133546
N       0.805885   -4.175529   -1.834032
O       0.089218   -4.808862   -2.865885
H       0.936117    1.926625   -0.391290
H      -0.778726    1.689039   -0.817530
H      -0.303138    1.839377    0.889764
H       1.468955   -0.023999   -1.511916
H       2.201476   -2.139555   -0.659317
H       0.728827   -2.253089    0.309484
H      -1.141544   -2.590729   -3.232348
H      -1.024001   -0.070540   -2.550543
H       0.433106   -5.707030   -2.826388
