15

C       0.014125    1.406255   -0.045344
O      -0.001748   -0.003282    0.009151
C       0.623240   -0.591624   -1.087872
C       0.564537   -2.101825   -0.955276
O       0.055517   -2.694132   -0.041611
C       1.231324   -2.865062   -2.123217
O       1.743593   -2.262733   -3.042748
C       1.195429   -4.305284   -2.032588
C       1.172480   -5.506867   -1.969273
H       1.041336    1.802375   -0.057827
H      -0.512725    1.785989   -0.934423
H      -0.495050    1.767266    0.850589
H       0.152579   -0.310772   -2.047077
H       1.682932   -0.294480   -1.183952
H       1.152106   -6.568576   -1.912391
