14

O      -0.004198    0.061594    0.043826
C      -0.025044    1.252444    0.084569
C      -1.076661    2.308789    0.024372
C      -0.468919    3.571818    0.660491
C       0.906297    3.203804    1.222069
C       1.083134    2.352585   -0.077422
C       2.367551    2.059085   -0.638179
N       3.404239    1.824677   -1.094152
C      -0.083116    3.213660   -0.733456
H      -2.138479    2.199995   -0.142706
H      -1.129545    4.364732    0.984496
H       1.578373    4.064192    1.227859
H       0.968934    2.663395    2.171271
H      -0.183524    3.665209   -1.707482
