18

C      -0.349810    1.411374    0.059287
N      -0.098606   -0.006642    0.039262
C      -0.994206   -1.168333    0.095206
C       0.266548   -2.074249    0.038614
C       0.583964   -2.954717    1.245767
C       0.443233   -2.819701   -1.265009
O      -0.321214   -2.778650   -2.195520
C       1.065857   -0.715723    0.016448
O       2.226908   -0.402937    0.004647
H       0.614684    1.921735    0.008600
H      -0.960144    1.718856   -0.797883
H      -0.863241    1.715140    0.979722
H      -1.564945   -1.239584    1.027755
H      -1.656300   -1.265026   -0.768861
H      -0.110460   -3.798102    1.318768
H       1.600452   -3.353180    1.168900
H       0.522640   -2.378866    2.173461
H       1.378328   -3.420121   -1.313777
