17

O       0.050563    1.407373    0.036471
C       0.049279    0.004061   -0.017766
C       0.534614   -0.621383    1.308956
O      -0.502523   -0.106515    2.208089
C      -1.376461   -1.040306    1.517432
C      -0.194629   -2.009945    1.335814
O      -0.307788   -2.729260    0.137251
C      -1.269626   -2.015875   -0.672513
C      -1.375091   -0.648324    0.002736
H      -0.295289    1.629219    0.912627
H       0.634720   -0.292408   -0.891026
H       1.551151   -0.429114    1.649920
H      -2.311013   -1.254250    2.032802
H       0.075207   -2.659170    2.167063
H      -0.893191   -1.960419   -1.698846
H      -2.222298   -2.563841   -0.680251
H      -2.170409    0.000714   -0.360173
