15

N       0.180035    1.292961   -0.312939
C       0.028063   -0.062336   -0.114139
N      -1.112612   -0.705517    0.071600
C      -0.694660   -1.983971    0.297833
N       0.606681   -2.181613    0.257787
N       1.073857   -0.916946   -0.006508
C       2.499153   -0.651110   -0.071445
C       2.909306   -0.020927   -1.326128
C       3.231115    0.529714   -2.344609
H       0.904836    1.543525   -0.974057
H      -0.703733    1.735634   -0.523603
H      -1.380474   -2.795501    0.492135
H       2.798445   -0.016116    0.772790
H       2.988972   -1.619795    0.054639
H       3.533087    0.989051   -3.253991
