18

C      -0.154927    1.370303   -0.196507
O      -0.092186   -0.034009   -0.119188
C       0.765972   -0.602844   -1.082030
C       0.736287   -2.109030   -0.921834
C      -0.610181   -2.814601   -1.277308
C       0.174667   -3.731899   -2.227555
O      -0.096767   -4.720386   -2.843617
C       1.473995   -2.929134   -2.026272
H       0.830768    1.833616   -0.031451
H      -0.532337    1.709605   -1.174325
H      -0.839831    1.710993    0.583598
H       0.440037   -0.324586   -2.101536
H       1.795228   -0.222291   -0.958945
H       1.076597   -2.372369    0.082362
H      -1.148831   -3.318674   -0.471276
H      -1.317462   -2.167493   -1.807759
H       1.737846   -2.343692   -2.914988
H       2.348544   -3.513032   -1.728452
