19

C       0.020803    1.554463    0.048623
C      -0.003376    0.056217   -0.022662
C      -0.031568   -0.643123   -1.159835
C      -0.054056   -2.140421   -1.122315
C      -0.940288   -2.831289   -0.042722
O      -0.067222   -4.018581   -0.093081
C       0.843124   -2.858761   -0.070038
C      -0.021950   -2.224126    1.057878
C       0.004661   -0.714851    1.277178
H       0.913362    1.913016    0.577923
H       0.012403    2.004968   -0.947495
H      -0.843567    1.940085    0.604985
H      -0.038705   -0.145579   -2.125671
H      -0.076554   -2.635064   -2.093726
H      -2.019543   -2.991390   -0.039551
H       1.916528   -3.052024   -0.099839
H      -0.016725   -2.804664    1.982915
H       0.890807   -0.441682    1.869444
H      -0.854093   -0.414799    1.896179
