17

C       0.341978    1.504768   -0.091315
C       0.048241    0.042271    0.112816
O       1.153269   -0.893411    0.115103
C       0.435396   -0.735084    1.321762
C       1.148959   -0.172908    2.515447
C       2.577625   -0.451302    2.732943
O       2.123927    0.842427    2.328988
C      -1.134023   -0.518084   -0.628413
O      -1.970565    0.153111   -1.173766
H       1.255415    1.789891    0.426345
H       0.442327    1.714180   -1.160185
H      -0.493491    2.104714    0.280404
H      -0.192340   -1.591000    1.589814
H       0.505129   -0.035275    3.385531
H       2.967956   -0.514203    3.746722
H       3.121440   -1.004278    1.970549
H      -1.164143   -1.631013   -0.633550
