17

C      -0.003686    1.500467   -0.037666
C       0.029757   -0.002129   -0.008151
N       0.010054   -0.645243   -1.175212
C       0.053169   -1.984620   -1.144546
N       0.104307   -2.633761   -2.358737
N       0.087644   -2.745289   -0.043940
C       0.095609   -2.087473    1.112844
C       0.078193   -0.698355    1.212788
N       0.169166   -0.027537    2.446587
H       0.829776    1.920211    0.537274
H       0.052303    1.849950   -1.068906
H      -0.928721    1.890260    0.408842
H      -0.231164   -2.099503   -3.143967
H      -0.167315   -3.603553   -2.335212
H       0.118506   -2.697492    2.016532
H      -0.028071   -0.630403    3.235334
H      -0.409335    0.800760    2.503085
