20

C      -0.042104    1.565674    0.208642
C       0.025642    0.037701    0.039205
C       0.895419   -0.612738    1.122236
C      -1.373114   -0.528057   -0.031058
C      -2.243213   -0.966667    1.157165
C      -1.952086   -1.931931    0.048564
N      -2.783719   -1.660582   -1.129328
C      -2.343669   -0.323326   -1.193538
O      -2.648150    0.585466   -1.914809
H       0.959270    2.005856    0.163437
H      -0.655730    2.015479   -0.576253
H      -0.483287    1.828478    1.176839
H       0.496280   -0.168260   -0.932344
H       0.522098   -0.387491    2.127290
H       0.938375   -1.701240    1.010018
H       1.919352   -0.231169    1.062215
H      -1.701817   -1.116294    2.086826
H      -3.248284   -0.572562    1.280306
H      -1.434382   -2.876013    0.154774
H      -3.763304   -1.917048   -1.193913
