16

N      -0.393722    1.130331   -0.059785
C      -0.131195   -0.092355    0.043499
O       0.899026   -0.663885    0.733817
C       0.937684   -2.062512    0.442536
C      -0.478851   -2.343334   -0.083994
C      -1.447774   -2.860025    0.987396
C      -2.874221   -2.976004    0.479446
O      -3.521814   -3.989284    0.535819
O      -0.889842   -1.050502   -0.549088
H       0.312826    1.684620    0.417546
H       1.705663   -2.259216   -0.313611
H       1.178460   -2.606443    1.358047
H      -0.470067   -3.012856   -0.947680
H      -1.126929   -3.842940    1.345145
H      -1.436971   -2.157796    1.832622
H      -3.289198   -2.043910    0.042902
