17

C      -0.038462    1.566842   -0.020990
C      -0.006467    0.058216    0.021101
C      -1.216776   -0.673940    0.679405
N      -1.059044   -2.118267    0.441012
C      -0.307945   -1.481903    1.546307
C       0.926647   -0.791009    0.918292
O       1.496963   -1.439510   -0.253946
C       0.674740   -0.710944   -1.105163
N       0.615014   -0.684617   -2.355379
H       0.950959    1.976760   -0.243298
H      -0.724749    1.907876   -0.802821
H      -0.376669    1.980929    0.934916
H      -2.182657   -0.231598    0.889994
H      -1.860638   -2.590375    0.857504
H      -0.418463   -1.822665    2.567898
H       1.683186   -0.380197    1.585807
H       1.268886   -1.347483   -2.775666
