23

O      -0.055064    1.393891   -0.032378
C       0.029228   -0.023079    0.017293
C       0.637735   -0.561055    1.342254
C      -0.096038   -1.906572    1.617849
C      -1.085420   -2.076888    0.431762
C      -1.384459   -0.618087    0.046945
C      -0.430421   -2.786715   -0.770127
C       0.890672   -2.109669   -1.180693
C       0.774366   -0.573879   -1.214221
H       0.839503    1.741592   -0.113528
H       1.725094   -0.676407    1.280276
H       0.431594    0.171543    2.127421
H       0.590870   -2.754529    1.701634
H      -0.646706   -1.853598    2.561562
H      -1.984467   -2.623336    0.731596
H      -1.976942   -0.110474    0.816042
H      -1.905878   -0.513840   -0.909484
H      -0.244946   -3.841582   -0.535192
H      -1.135260   -2.772438   -1.611674
H       1.673237   -2.392076   -0.466126
H       1.225082   -2.484232   -2.154142
H       0.233388   -0.244487   -2.109533
H       1.777714   -0.128390   -1.268284
