22

C      -0.205799    1.538160   -0.100904
C      -0.254391    0.020238   -0.293808
C       1.020759   -0.541401   -0.935711
C       0.980489   -2.045031   -1.116330
C       0.281586   -2.656552   -2.319989
C       1.785317   -2.721146   -2.183679
O       2.578937   -1.912025   -2.993101
C       2.789241   -2.457028   -4.279002
H       0.628862    1.828812    0.546996
H      -0.072536    2.053883   -1.058547
H      -1.127112    1.914524    0.354867
H      -0.418709   -0.467997    0.676108
H      -1.117598   -0.247222   -0.916458
H       1.190937   -0.066275   -1.907678
H       1.887422   -0.274922   -0.315233
H       0.889999   -2.604736   -0.187859
H      -0.303187   -3.562058   -2.199115
H      -0.104089   -1.961982   -3.059980
H       2.232709   -3.690745   -1.955696
H       3.304259   -3.428701   -4.227846
H       1.842784   -2.597530   -4.820812
H       3.418013   -1.753077   -4.829457
