18

C       0.179766    1.541768   -0.225717
C       0.030510    0.025029   -0.092874
O       0.758566   -0.583734   -1.167881
C       1.365778   -1.804169   -0.736844
C       1.458037   -1.710249    0.770206
N       2.082619   -0.449005    1.220877
C       0.613089   -0.568263    1.178344
C      -1.449506   -0.344700   -0.226842
O      -2.212571   -0.470900    0.695898
H       1.235827    1.796069   -0.113939
H      -0.164438    1.877046   -1.208273
H      -0.404487    2.053466    0.544690
H       0.755297   -2.675501   -1.019876
H       2.338053   -1.878658   -1.234209
H       1.552545   -2.610425    1.367418
H       2.395738   -0.557024    2.182837
H       0.017311   -0.559884    2.082372
H      -1.769467   -0.478458   -1.285037
