21

C       0.004232    1.483057   -0.228786
C       0.122270   -0.014015   -0.060389
C       1.456681   -0.700437   -0.066874
C       0.651003   -0.647067    1.222291
C       1.129344    0.238967    2.271748
N       1.482103    0.899803    3.154718
N       0.031069   -1.868867    1.657514
C       0.950061   -2.763550    2.355850
C      -1.204203   -1.650205    2.404650
H       0.822559    2.009742    0.269964
H       0.030524    1.749052   -1.290569
H      -0.935905    1.856963    0.189358
H      -0.688220   -0.597481   -0.486904
H       1.533143   -1.678902   -0.526080
H       2.349220   -0.087131   -0.123018
H       1.283324   -2.368857    3.330611
H       0.454417   -3.723689    2.527177
H       1.833903   -2.938557    1.736316
H      -1.885818   -1.030844    1.815006
H      -1.687880   -2.614265    2.587497
H      -1.040830   -1.156682    3.377726
