18

O      -0.197968    0.411921    0.852515
C       0.328192    0.775902   -0.169020
C       1.456878    1.745617   -0.224615
N       2.254341    1.714886   -1.473697
C       1.443504    2.888781   -1.193671
C       0.310717    3.241752   -2.167269
C       0.434924    4.776481   -2.287261
O       1.765336    5.093314   -1.888648
C       2.062769    4.233357   -0.807076
H       0.003812    0.409927   -1.168002
H       1.955805    1.910956    0.728525
H       3.235820    1.878749   -1.261098
H       0.491480    2.742345   -3.121664
H      -0.675740    2.942334   -1.805782
H       0.293471    5.151200   -3.302976
H      -0.289286    5.278514   -1.626403
H       1.614952    4.607966    0.129326
H       3.149083    4.191609   -0.680865
