19

C      -0.201479    1.514924    0.048494
C      -0.055033    0.032920    0.028132
C      -0.050097   -0.861339   -0.962809
C       0.145377   -2.202390   -0.235185
C      -0.935600   -2.058596    0.914185
C       0.107625   -0.862704    1.263836
C       1.193951   -1.926066    0.795277
C       2.144066   -2.349278   -0.367636
O       1.015095   -3.119524   -0.961086
H       0.663040    1.994026    0.525653
H      -0.296975    1.918483   -0.963377
H      -1.084258    1.825148    0.622527
H      -0.143963   -0.741419   -2.033035
H      -1.949413   -1.752861    0.642807
H      -0.938188   -2.862984    1.653737
H       0.118280   -0.408945    2.255488
H       1.226673   -2.733821    1.530967
H       2.461881   -1.556231   -1.049996
H       2.975554   -3.007967   -0.107249
