18

C       0.169454    1.533012    0.146927
C      -0.015916    0.018935   -0.040847
C       0.710491   -0.498109   -1.260673
N       0.239499   -0.089903   -2.448117
C       0.873516   -0.519020   -3.541977
C       1.981507   -1.355426   -3.535308
C       2.466031   -1.776517   -2.298237
O       3.546362   -2.594132   -2.274570
C       1.817458   -1.338710   -1.143324
H       1.221835    1.783534    0.316838
H      -0.165142    2.064973   -0.747220
H      -0.408075    1.893379    1.003601
H       0.326278   -0.517340    0.850859
H      -1.083158   -0.198283   -0.161457
H       0.469667   -0.175004   -4.491821
H       2.460831   -1.678224   -4.451195
H       3.767270   -2.802029   -1.359911
H       2.168705   -1.649250   -0.162795
