17

C       0.020514    1.330394   -0.001590
O       0.031081   -0.074682   -0.107494
C      -1.227152   -0.649315    0.154747
C      -1.111452   -2.133540    0.064371
O      -0.409862   -2.904534    1.084786
C      -0.854128   -3.934891    0.160955
C      -2.204934   -3.229753   -0.176403
O      -2.008481   -3.269717   -1.616044
C      -0.656839   -3.058090   -1.113699
H       1.031568    1.679549   -0.222453
H      -0.680069    1.788740   -0.717528
H      -0.257675    1.660871    1.011375
H      -1.593300   -0.370299    1.157030
H      -1.980027   -0.318785   -0.581636
H      -0.612964   -4.976063    0.369591
H      -3.208513   -3.350860    0.231160
H       0.169995   -2.969419   -1.816184
