14

O      -0.817975    0.989789    0.633515
C       0.129576    0.901450   -0.099439
C       1.365303    1.795549   -0.006605
C       1.404556    2.600296    1.296416
C       2.751450    3.249191    1.494254
O       2.969643    4.310732    1.989055
O       3.830293    2.472783    1.085246
C       3.608933    1.333227    0.351821
N       2.541118    0.957692   -0.200687
H       0.189651    0.151912   -0.915856
H       1.297548    2.475173   -0.873944
H       0.633092    3.368330    1.342109
H       1.232364    1.919465    2.139630
H       4.530636    0.764821    0.264705
