22

C      -0.053291    1.566716    0.137633
C       0.037278    0.039241    0.068571
C       0.658529   -0.561800    1.333067
C      -1.336794   -0.574029   -0.205245
O       0.814799   -0.364973   -1.113932
C       2.101283   -0.020535   -1.267636
O       2.762158    0.633522   -0.496169
C       2.642396   -0.578540   -2.586644
N       4.034534   -0.272624   -2.863154
H       0.923966    2.012667    0.322018
H      -0.455921    1.966773   -0.798058
H      -0.730350    1.855873    0.947602
H       0.010207   -0.357216    2.190911
H       0.752292   -1.647460    1.231975
H       1.643296   -0.138000    1.529375
H      -1.758424   -0.176515   -1.132514
H      -1.261975   -1.660854   -0.299200
H      -2.022226   -0.342768    0.615039
H       2.492369   -1.664389   -2.579499
H       2.008385   -0.199730   -3.396797
H       4.159136    0.736071   -2.841386
H       4.604687   -0.614975   -2.094287
