20

C       0.381672    1.388865    0.904285
C       0.031768    0.150596    0.098031
C       0.791821   -0.102149   -1.185505
C       1.058487   -0.956805    0.027060
C      -1.411538   -0.280441    0.240308
N      -2.455309    0.732099    0.142641
C      -2.441090   -0.347820   -0.861334
C      -2.173677    0.108930   -2.255419
O      -2.482516   -0.522513   -3.235747
H       1.441094    1.638674    0.792622
H      -0.215209    2.244780    0.577295
H       0.186192    1.233787    1.972076
H       0.279049   -0.568264   -2.018789
H       1.538320    0.628913   -1.477968
H       1.990361   -0.822905    0.566096
H       0.700914   -1.981568    0.003483
H      -1.560822   -1.046168    1.003259
H      -3.191476    0.577289    0.825028
H      -3.167772   -1.154579   -0.796459
H      -1.683584    1.102922   -2.318757
