17

O       0.399888    0.297577   -0.668728
C       0.557097    1.480944   -0.663365
O       0.720158    2.183685    0.477197
C       1.014095    3.576762    0.359214
C       2.518029    3.819399    0.304575
N       3.067103    3.314421   -0.944482
C       3.226752    4.275087   -2.033912
C       4.410517    3.751014   -1.297297
H       0.561043    2.119429   -1.565203
H       0.525251    3.995301   -0.530514
H       0.581984    4.052117    1.243261
H       2.710792    4.897869    0.452270
H       2.990059    3.280824    1.133756
H       2.989163    3.909370   -3.028468
H       2.944581    5.310652   -1.847654
H       4.916878    4.438037   -0.621024
H       5.050859    2.996364   -1.744219
