20

O       0.079450    1.471138    0.658517
C      -0.014299    0.141387    0.167524
C      -1.421960   -0.428057    0.235560
C      -2.417009    0.256512   -0.694435
C      -3.846094   -0.304061   -0.644084
C      -4.841984    0.643274   -1.267570
O      -5.624183    0.358007   -2.137020
C      -1.540889   -1.860135    0.618675
N      -1.941902   -0.799425    1.558202
H      -0.277993    2.067486   -0.005663
H       0.367934    0.068908   -0.862696
H       0.649183   -0.455584    0.803453
H      -2.448405    1.320812   -0.418783
H      -2.035984    0.210359   -1.722958
H      -3.930063   -1.271944   -1.144610
H      -4.119275   -0.429946    0.413066
H      -4.807005    1.677695   -0.847667
H      -2.357146   -2.468886    0.241811
H      -0.624292   -2.413082    0.810423
H      -1.232427   -0.652388    2.271804
