15

O      -0.189091    1.366354    0.077821
C      -0.008341    0.007373    0.051594
C      -0.215846   -0.869592   -1.202066
O       0.502589   -2.087071   -1.017326
C       0.049610   -2.041454    0.359685
C      -1.104341   -1.038417   -0.008220
C       0.852412   -0.854855    0.997732
C       2.298194   -0.835882    0.903266
C       3.497607   -0.793320    0.826739
H       0.560568    1.781962   -0.364376
H      -0.391673   -0.487379   -2.198865
H      -0.018554   -3.013355    0.841293
H      -2.171222   -1.010465    0.159477
H       0.512613   -0.698626    2.026446
H       4.556783   -0.772237    0.753525
