14

N       0.007751    1.349979    0.125787
C      -0.042073   -0.013682    0.029285
N      -1.181227   -0.622973    0.017309
C      -1.193836   -2.010605   -0.004238
N      -2.230076   -2.750641   -0.000631
N       0.058470   -2.658799   -0.044366
C       1.281354   -2.053221   -0.026499
O       2.351658   -2.615984   -0.024515
N       1.175638   -0.655752   -0.010119
H       0.792055    1.831609   -0.285272
H      -0.887167    1.795509   -0.010266
H      -3.056048   -2.155520    0.029164
H       0.046612   -3.668016   -0.057349
H       2.047470   -0.162307    0.102939
