16

C       0.023520    1.559833    0.067311
C       0.003569    0.057539   -0.039013
C       0.702986   -0.721333   -1.207571
C      -0.325225   -1.861252   -0.958614
O       0.098526   -2.651612    0.178047
C       0.460432   -1.857141    1.214917
N       0.438540   -0.590315    1.234272
C      -1.251129   -0.716090   -0.468784
O      -2.416844   -0.473311   -0.571451
H       1.030383    1.912664    0.309655
H      -0.299426    2.021488   -0.870167
H      -0.649205    1.886602    0.865203
H       0.549569   -0.250049   -2.180831
H       1.753720   -0.973599   -1.054289
H      -0.631689   -2.551028   -1.741618
H       0.792591   -2.442700    2.068116
