23

C       0.102132    1.473074    0.018784
C      -0.008631   -0.053394    0.031763
C      -1.453733   -0.532148    0.010448
O      -1.467468   -1.944230    0.024043
C      -2.769457   -2.487786    0.005986
C      -2.641849   -4.003556    0.022829
C      -3.982526   -4.720015    0.006089
C      -3.934533   -6.237698    0.021798
O      -5.030240   -4.113534   -0.018421
H       1.148426    1.791433    0.034419
H      -0.361007    1.899805   -0.877781
H      -0.392693    1.917133    0.889637
H       0.512067   -0.480052   -0.833306
H       0.480451   -0.462820    0.923210
H      -2.002287   -0.135693    0.882987
H      -1.970397   -0.153070   -0.888870
H      -3.352204   -2.145666    0.875251
H      -3.320648   -2.162587   -0.889948
H      -2.046287   -4.340690   -0.835810
H      -2.076993   -4.323844    0.908248
H      -3.407900   -6.593671    0.914399
H      -4.947942   -6.640335    0.007697
H      -3.376584   -6.610893   -0.844352
