21

C       0.379126    1.210003    0.431994
C       0.146950   -0.259932    0.066657
C      -1.331604   -0.680883    0.035774
N      -2.163192   -0.402928   -1.182834
C      -1.805523    0.606106   -2.152439
C      -2.152670   -1.820292   -1.606253
C      -1.547108   -2.151489   -0.263832
N      -1.278603   -3.181435    0.415470
O      -1.640376   -4.352589   -0.277888
H       1.449308    1.427502    0.503808
H      -0.046906    1.892189   -0.308840
H      -0.074727    1.447170    1.400476
H       0.622650   -0.497741   -0.892462
H       0.633983   -0.899144    0.812550
H      -1.822832   -0.319810    0.949953
H      -0.791325    0.497094   -2.578851
H      -2.517197    0.560789   -2.984151
H      -1.884982    1.603714   -1.709039
H      -3.137848   -2.244764   -1.830849
H      -1.474082   -2.052847   -2.444778
H      -1.401373   -5.042313    0.350499
