17

O       0.194362   -0.195126   -0.431100
C       0.084309    0.983859   -0.224536
C       1.251408    1.947851   -0.043892
C       1.288574    2.942657   -1.169932
C       0.957883    4.237301   -1.100164
C       1.079162    4.950286   -2.417258
C       1.557340    3.844172   -3.374623
O       1.786108    3.976181   -4.546474
C       1.692113    2.541833   -2.568851
H      -0.914671    1.474244   -0.171852
H       1.109950    2.473805    0.908615
H       2.171926    1.357113    0.005876
H       0.642741    4.737731   -0.190689
H       0.134614    5.376678   -2.779615
H       1.800930    5.777369   -2.409056
H       2.721016    2.163616   -2.632030
H       1.058768    1.758451   -3.005300
