18

C      -0.138273    1.538508   -0.081573
C       0.068094    0.028535    0.022902
C      -1.204019   -0.617647   -0.323173
N      -2.237108   -1.076700   -0.566793
N       1.297050   -0.596286   -0.706540
C       2.123049   -0.060177    0.480481
C       0.880133   -0.631681    1.189476
N       0.552028   -0.534315    2.571354
C       1.074083   -1.823035    0.193140
H      -0.329710    1.813259   -1.122714
H      -1.009984    1.827266    0.511469
H       0.714755    2.111828    0.278499
H       3.061214   -0.604029    0.609626
H       2.300189    1.013375    0.472465
H      -0.305796   -1.037147    2.780430
H       1.286505   -0.927601    3.151870
H       0.210406   -2.428427   -0.085122
H       1.973544   -2.431799    0.304753
