16

C      -0.019245    1.519568    0.065233
C      -0.009953    0.028978   -0.063796
C      -0.041592   -0.668428   -1.227374
N      -0.035349   -2.038040   -1.295687
C      -0.006049   -2.708658   -0.178560
N      -0.042463   -4.065512   -0.148640
C       0.049569   -2.084345    1.166042
O       0.111249   -2.717977    2.212490
N       0.036955   -0.711625    1.107954
H       0.875861    1.888113    0.582300
H      -0.049983    1.981605   -0.923342
H      -0.891477    1.872579    0.629915
H      -0.074136   -0.141531   -2.174036
H       0.118000   -4.569885   -1.003490
H       0.164217   -4.498156    0.737454
H       0.076325   -0.244008    2.003910
