19

C       0.029403    1.487261    0.142314
C      -0.070263   -0.045465    0.016845
C      -1.466040   -0.480624   -0.027135
C      -2.614284   -0.831924   -0.093567
C       0.684524   -0.568973   -1.215827
C       2.254831   -0.429596   -1.255108
C       2.334508   -1.956101   -1.377429
O       1.688272   -2.501846   -0.220895
C       0.870511   -2.092828   -1.324214
H       1.076222    1.799162    0.204855
H      -0.425721    1.977801   -0.723726
H      -0.488230    1.837353    1.039033
H       0.403764   -0.500761    0.895945
H      -3.627467   -1.146834   -0.133926
H       0.237463   -0.162359   -2.128184
H       2.606595    0.105579   -2.139824
H       2.736330   -0.018785   -0.363808
H       3.086315   -2.569256   -1.860072
H       0.202290   -2.833136   -1.747194
