13

O       0.082395    1.285171    0.156445
C       0.069604   -0.048860    0.016951
N       0.097042   -0.702284   -1.126953
C       0.066701   -2.008107   -0.696601
C       0.022238   -2.136960    0.666993
N       0.024203   -0.828019    1.144505
N      -0.007702   -3.426280    1.094353
C       0.019348   -4.105082   -0.043993
N       0.064895   -3.299233   -1.167917
H       0.115164    1.650150   -0.736944
H      -0.001485   -0.490430    2.090703
H       0.008026   -5.180680   -0.124229
H       0.091089   -3.611868   -2.122944
