21

C      -0.090801    1.574998   -0.290309
C       0.051339    0.109834    0.138693
C      -1.290443   -0.593004    0.160713
C      -1.867945   -1.270837   -1.051406
O      -0.951318   -1.561916   -2.080030
C      -0.340531   -2.820319   -1.803159
C      -0.420288   -3.057758   -0.273710
O       0.789119   -2.784309    0.424380
C      -1.524073   -2.102540    0.157129
H       0.878765    2.082998   -0.283129
H      -0.501545    1.647045   -1.302672
H      -0.759392    2.126806    0.380684
H       0.730527   -0.409623   -0.538743
H       0.506955    0.050610    1.133376
H      -2.035706   -0.076419    0.764966
H      -2.882497   -1.091336   -1.395613
H      -0.873559   -3.620185   -2.340632
H       0.694838   -2.788751   -2.159341
H      -0.733645   -4.092850   -0.074679
H       1.439629   -3.444005    0.163380
H      -2.292565   -2.489555    0.815114
