17

C      -0.101713    1.483441   -0.236972
C       0.072086   -0.005787    0.008670
O      -1.169711   -0.662543    0.143529
C       1.061640   -0.740319   -0.988753
N       1.983749   -0.853008    0.153509
C       1.076689   -0.405413    1.096986
N       0.954938   -0.356496    2.353710
C       0.531122   -2.064685   -1.502385
O       0.347837   -2.300162   -2.667278
H       0.861560    1.975439   -0.400942
H      -0.738327    1.643157   -1.111818
H      -0.581352    1.942819    0.632436
H      -1.333424   -0.752198    1.090972
H       1.434344   -0.141210   -1.823285
H       2.758050   -1.491557    0.270050
H       1.741198   -0.777441    2.849893
H       0.333217   -2.816520   -0.708261
