14

C      -0.102979    1.464525    0.082347
N      -0.020237    0.022603   -0.108384
C      -1.119168   -0.769597   -0.040380
C      -1.293328   -2.130801    0.029059
C      -2.702999   -2.263613    0.009407
N      -3.340753   -1.108643   -0.060283
O      -2.314214   -0.156578   -0.086946
C      -3.447032   -3.480119    0.056589
N      -4.012542   -4.487585    0.097358
H       0.870110    1.899225   -0.151782
H      -0.843012    1.883660   -0.602168
H      -0.382573    1.743894    1.106449
H       0.842411   -0.423525    0.156975
H      -0.550590   -2.906889    0.076786
