19

C       0.247332    1.439113    0.036352
O       1.178845    0.390011   -0.195499
C      -0.196555    0.031626    0.052827
C      -0.478266   -0.696496    1.291525
C      -1.358380   -1.674214    1.545158
C      -1.134250   -1.979949    3.031706
C      -1.027672   -0.524567    3.606708
C       0.215384   -0.492328    2.650906
C       0.434084   -1.983819    3.076134
H       0.366152    1.975728    0.976704
H       0.010664    2.060916   -0.826771
H      -0.722005   -0.333029   -0.830211
H      -2.067426   -2.153027    0.884178
H      -1.737702   -2.754716    3.503377
H      -1.849598    0.163047    3.392291
H      -0.759121   -0.493688    4.667444
H       1.003420    0.255599    2.723933
H       0.839939   -2.089645    4.087252
H       0.957859   -2.635587    2.373509
