21

C      -0.009744    1.562154    0.004083
C       0.060141    0.022973   -0.037197
C       0.761606   -0.438982   -1.234841
C       1.335397   -0.808618   -2.225195
C       0.701758   -0.534816    1.255535
C       0.783401   -2.071093    1.336375
C       2.129511   -2.305096    2.039087
C       2.953369   -1.131158    1.506446
O       2.037317   -0.043650    1.394753
H       0.995687    1.977446    0.098078
H      -0.470201    1.956070   -0.905183
H      -0.603066    1.889499    0.863969
H      -0.966675   -0.370213   -0.070702
H       1.839419   -1.131188   -3.102280
H       0.113691   -0.138124    2.096981
H      -0.067052   -2.500010    1.871549
H       0.803271   -2.498442    0.329040
H       2.019467   -2.228140    3.125985
H       2.573020   -3.277108    1.809259
H       3.764463   -0.823311    2.173747
H       3.383466   -1.366531    0.522039
