19

N       0.195576    1.352270   -0.194451
C       0.064453   -0.045632   -0.076792
C      -1.092495   -0.792671   -0.071309
N      -0.733316   -2.108705    0.152581
C       0.622200   -2.202514    0.283032
C       1.161808   -0.939773    0.145078
C       2.585257   -0.539516    0.234150
C       3.686807   -1.475390   -0.192620
C       3.393361   -0.251616   -1.022197
H       1.053271    1.602735   -0.672190
H      -0.584218    1.776139   -0.681131
H      -2.123390   -0.506390   -0.201800
H      -1.374722   -2.878647    0.201038
H       1.104487   -3.148787    0.468664
H       2.827542    0.106427    1.076196
H       4.599416   -1.493986    0.392542
H       3.399796   -2.436810   -0.603373
H       2.902091   -0.401433   -1.977424
H       4.105592    0.566380   -1.001168
