19

C      -0.474442    1.399061   -0.053955
C       0.062644   -0.014479    0.035432
O       1.217239   -0.255304   -0.881258
C       2.070477   -0.345778    0.263450
C       2.747447    0.818382    0.999674
C       2.186201   -0.116734    2.090990
C       2.574487   -1.438993    1.276066
C       1.168840   -2.035597    1.407844
C       0.905590   -0.520157    1.246775
H       0.277938    2.148687    0.196061
H      -0.829521    1.598130   -1.070036
H      -1.319191    1.513412    0.633792
H      -0.728425   -0.733422   -0.203880
H       3.837016    0.888711    0.929954
H       2.289294    1.805684    0.916974
H       2.270613   -0.014473    3.175582
H       3.550662   -1.933292    1.330008
H       0.843875   -2.670154    0.577959
H       0.903135   -2.488511    2.367634
