16

C      -0.223527   -0.935719    0.452170
C      -0.140924    0.208453    0.072688
C      -0.005779    1.519689   -0.419029
C      -1.056024    2.382110   -0.589539
C      -1.803347    2.712279    0.701497
N      -0.831111    3.898901    0.812328
C       0.590866    3.695102    0.208821
C       1.248237    2.344948   -0.110709
C      -0.583896    3.835621   -0.653541
H      -0.305907   -1.940653    0.784793
H      -2.799089    3.155495    0.616933
H      -1.771310    1.966007    1.499071
H       1.199794    4.546969    0.496300
H       1.774220    1.872216    0.724366
H       1.978134    2.485855   -0.919618
H      -0.868552    4.621820   -1.343211
