21

C       1.429509   -0.036472   -0.286620
C       0.643579   -1.135314   -0.910833
N      -0.008232   -0.145303   -0.058882
C      -0.422076   -0.599555    1.261831
C      -0.562568    0.555898    2.264173
C      -1.452167   -0.015156    3.390158
C      -2.274508   -1.169033    2.736203
C      -1.829281   -1.215269    1.258217
H       2.097237   -0.306597    0.530466
H       1.753738    0.816835   -0.875432
H       0.382345   -1.100558   -1.964638
H       0.787540   -2.137745   -0.509753
H       0.294005   -1.342039    1.667198
H       0.400070    0.929513    2.625003
H      -1.063242    1.384884    1.751029
H      -0.836780   -0.404021    4.207560
H      -2.093665    0.755653    3.825509
H      -2.056334   -2.119273    3.233754
H      -3.352712   -1.012673    2.826836
H      -2.470456   -0.581104    0.635337
H      -1.855157   -2.222765    0.833065
