19

C       0.249849    1.585368    0.071956
C      -0.035243    0.077778   -0.052924
O      -1.426133   -0.159040   -0.090561
C       0.687595   -0.564414   -1.256499
O       0.674612    0.191946   -2.447401
C       2.137128   -0.756607   -0.773208
C       2.017054   -1.108924    0.726092
C       0.610608   -0.666663    1.120134
O       0.021146   -0.913690    2.143596
H       1.319221    1.808045    0.134689
H      -0.150311    2.098467   -0.804932
H      -0.239857    1.973181    0.969230
H      -1.685205   -0.361885    0.820750
H       0.215730   -1.547312   -1.415206
H      -0.235702    0.229088   -2.760507
H       2.657892   -1.522110   -1.351321
H       2.676916    0.183443   -0.919588
H       2.097423   -2.183314    0.922582
H       2.769009   -0.622698    1.354936
