19

C       0.017908    1.469030   -0.103208
C       0.004662    0.014524   -0.026928
C       0.029619   -1.189723    0.023885
C      -0.023251   -2.646075    0.110327
C      -1.474853   -3.157845    0.070237
O      -2.246316   -2.603591    1.100726
C      -2.090582   -3.189950   -1.354559
O      -1.881247   -4.616692   -1.433533
C      -1.589990   -4.690434   -0.022819
H       0.846174    1.822116   -0.727098
H      -0.910785    1.854121   -0.538059
H       0.133279    1.920090    0.888296
H       0.543272   -3.105068   -0.708684
H       0.437379   -2.983132    1.047978
H      -2.035357   -1.661495    1.144100
H      -3.156071   -2.926694   -1.353284
H      -1.571083   -2.647921   -2.152432
H      -0.690683   -5.281161    0.187143
H      -2.434556   -5.079098    0.560021
