16

C       0.117873    1.743212    0.118751
C      -0.074699    0.245289   -0.080245
C       0.491849   -0.558458    1.113041
C       0.474911   -1.999749    0.879111
N       0.463986   -3.134274    0.660051
O      -1.474022    0.004553   -0.194711
C      -1.896810   -0.939616   -1.069615
N      -3.126329   -1.198038   -1.155692
H       1.180330    1.990946    0.196850
H      -0.307281    2.288260   -0.726901
H      -0.388696    2.076474    1.029287
H       0.431998   -0.079349   -0.998678
H       1.523470   -0.247323    1.309716
H      -0.099833   -0.328963    2.005502
H      -1.083777   -1.397596   -1.647031
H      -3.282093   -1.916649   -1.859319
