17

C       0.422417    1.434854   -0.322571
C       0.063653    0.018874    0.076412
O       0.619724   -0.973722   -0.833206
C       1.293624   -1.649100    0.246799
C       0.765156   -0.656098    1.289881
C       2.022938   -0.001742    1.869851
O       3.120058   -0.360487    1.011314
C       2.802747   -1.390017    0.173690
O       3.613047   -1.934694   -0.513971
H       1.505739    1.577409   -0.368971
H       0.011603    1.649474   -1.313678
H      -0.002430    2.156717    0.383658
H      -1.026758   -0.096397    0.120064
H       1.059924   -2.715052    0.297361
H       0.092416   -1.026001    2.061948
H       1.972053    1.088979    1.910597
H       2.240468   -0.376210    2.875885
