21

C      -0.021751    1.446741   -0.548896
C      -0.028280    0.117599    0.215856
C      -1.404688   -0.519083    0.247184
C      -1.857886   -1.438248   -0.870087
C      -1.629898   -1.976663    0.535357
N      -0.539807   -2.852262    0.877878
C      -0.682744   -4.189104    0.311761
C       0.453020   -5.040170    0.676719
N       1.360381   -5.703289    0.943157
H       0.977616    1.891812   -0.559892
H      -0.341931    1.304318   -1.586040
H      -0.703997    2.168470   -0.087030
H       0.693555   -0.562282   -0.254624
H       0.325183    0.281912    1.241847
H      -2.169229    0.140380    0.651917
H      -2.870687   -1.360775   -1.250739
H      -1.114993   -1.688253   -1.622801
H      -2.529136   -2.213774    1.100429
H       0.355257   -2.456621    0.618398
H      -1.597542   -4.644809    0.711186
H      -0.784637   -4.203327   -0.787912
