14

N      -0.004750    1.333332   -0.140635
C      -0.098623   -0.010453   -0.214726
N      -1.044125   -0.649372    0.380964
C      -1.113653   -2.007363    0.259739
C      -2.009005   -2.886586    0.802026
C      -1.562449   -4.140736    0.319412
O      -2.136498   -5.324895    0.589561
N      -0.498845   -4.058161   -0.445767
O      -0.204185   -2.681954   -0.488380
H       0.779634    1.820885   -0.532407
H      -0.652237    1.838831    0.442243
H       0.674836   -0.487398   -0.821308
H      -2.846631   -2.668754    1.439942
H      -1.624109   -6.003831    0.130166
