19

C       0.055971    1.464939   -0.073724
C      -0.054120   -0.072555   -0.061142
C       0.802885   -0.607335    1.073049
O       1.809273   -1.251788    0.926473
C      -1.515470   -0.568701    0.079661
C      -1.595806   -2.093025    0.240742
O      -2.174630   -0.026842    1.223396
C      -2.346162   -0.216023   -1.161924
O      -1.907895    0.051235   -2.249145
H       1.091563    1.768488   -0.248859
H      -0.555910    1.893596   -0.871072
H      -0.249523    1.902915    0.884036
H       0.344364   -0.468324   -0.998795
H       0.436957   -0.332573    2.088247
H      -1.157895   -2.387925    1.198296
H      -2.638911   -2.422101    0.234650
H      -1.057252   -2.596476   -0.565735
H      -2.184169    0.933797    1.149434
H      -3.440736   -0.238951   -0.951682
