18

O       0.059215    0.127510   -0.592673
C      -0.006089    1.243296   -0.139155
C      -1.275340    1.961726    0.346788
N      -0.883775    3.263663    0.899114
C      -0.014655    3.169847    2.078364
C       0.592182    3.401135    0.741385
C       1.136913    2.202854    0.029203
C       2.532425    1.636548    0.201819
C       2.159866    2.279712   -1.092763
H      -1.943643    2.111682   -0.509662
H      -1.814253    1.350527    1.077591
H      -0.117365    3.989585    2.783582
H       0.137489    2.193043    2.536674
H       0.949914    4.388745    0.463246
H       3.198790    2.165638    0.873995
H       2.601003    0.553892    0.225163
H       1.983904    1.636933   -1.948260
H       2.559574    3.262156   -1.321492
