19

C      -0.188087    1.550920   -0.015199
C       0.003948    0.042833   -0.016432
C       0.816058   -0.610217   -1.188675
C       2.112952   -0.223076   -0.414338
C       1.198774   -0.566183    0.796852
O       0.984274   -1.987231    0.633265
C       0.705682   -2.083664   -0.785159
C       1.493197   -0.209606    2.159004
C       1.729184    0.144560    3.283113
H       0.712677    2.102589   -0.295842
H      -0.979006    1.831667   -0.718850
H      -0.490061    1.894505    0.979659
H      -0.942712   -0.454978    0.218197
H       0.652711   -0.350852   -2.233986
H       2.997648   -0.851142   -0.538360
H       2.374817    0.830709   -0.483961
H      -0.293387   -2.506593   -0.941695
H       1.448612   -2.729247   -1.267899
H       1.941441    0.444262    4.279591
