20

C      -0.010635    1.541562   -0.034817
C      -0.002849    0.025483   -0.000200
C      -1.323462   -0.714003    0.383364
C      -0.464677   -1.709860    1.167768
C       0.726025   -0.729705    1.208209
C       1.590136   -1.855956    0.618950
C       1.067472   -1.986191   -0.750870
C       0.553362   -0.657090   -1.261821
N       0.358187   -2.703243    0.354948
H       0.999850    1.939878   -0.182763
H      -0.638200    1.914421   -0.853093
H      -0.403415    1.958631    0.898800
H      -1.939592   -0.122764    1.069757
H      -1.950233   -1.086813   -0.432860
H      -0.863222   -2.218344    2.046660
H       1.025655   -0.154604    2.081739
H       2.512452   -2.274123    1.006871
H       1.522518   -2.686900   -1.444267
H      -0.214361   -0.752489   -2.037640
H       1.392570   -0.095603   -1.693934
