23

C      -0.142023    1.562567    0.125311
C       0.028472    0.043367    0.017580
C       0.737476   -0.450305   -1.259410
O       0.015621   -0.023282   -2.424074
C       2.204902    0.023049   -1.341426
C       2.933236   -0.633413   -2.517456
O       2.880403   -2.046168   -2.441038
C       1.542996   -2.519860   -2.487803
C       0.715422   -1.987393   -1.316211
H       0.817909    2.087925    0.158053
H      -0.720836    1.960479   -0.715584
H      -0.686232    1.822832    1.037849
H       0.581155   -0.326467    0.889986
H      -0.960620   -0.429429    0.048226
H       0.110329    0.931614   -2.499653
H       2.250427    1.114790   -1.444805
H       2.720861   -0.234194   -0.408736
H       2.490367   -0.287067   -3.464961
H       3.993520   -0.363605   -2.517393
H       1.070169   -2.227630   -3.437583
H       1.604203   -3.611587   -2.456245
H       1.119258   -2.383603   -0.377857
H      -0.322176   -2.327408   -1.407008
