18

C      -0.048180    1.396714    0.050906
N      -0.057814   -0.057685    0.009750
C       0.503923   -0.618459   -0.975784
C       0.584810   -2.126394   -1.174116
N       1.310412   -2.253929   -2.421706
C       1.644483   -3.511185   -3.041555
C       1.652311   -1.040081   -2.959364
O       2.256151   -0.818358   -3.984051
N       1.155052   -0.072389   -2.070862
H       0.973228    1.806704    0.080481
H      -0.559813    1.842287   -0.816228
H      -0.566126    1.737986    0.950015
H       1.110500   -2.601165   -0.335657
H      -0.419639   -2.565542   -1.229322
H       0.743509   -4.088049   -3.285659
H       2.187711   -3.291769   -3.962115
H       2.279061   -4.122624   -2.387676
H       1.285101    0.907486   -2.252897
