23

C       0.055688    1.432689   -0.908820
C      -0.072266   -0.014460   -0.461822
O       0.795549   -0.803459   -1.250442
C       0.843776   -2.179866   -0.887380
C      -0.352449   -2.994904   -1.447785
C       0.113861   -3.540259   -2.789814
C       0.761711   -2.572471   -3.751473
C       1.622007   -3.422614   -2.848135
C       2.096761   -2.802469   -1.541996
H       1.087999    1.777137   -0.800179
H      -0.230606    1.537755   -1.959264
H      -0.592543    2.076760   -0.306972
H       0.196589   -0.115681    0.603696
H      -1.116337   -0.352061   -0.560512
H       0.889612   -2.246127    0.209561
H      -0.579025   -3.827079   -0.769985
H      -1.256879   -2.381076   -1.514796
H      -0.396758   -4.406434   -3.196404
H       0.741144   -2.836764   -4.803611
H       0.689828   -1.510811   -3.545901
H       2.227331   -4.203481   -3.295184
H       2.869563   -2.037909   -1.664703
H       2.501964   -3.584582   -0.889435
