21

C      -0.064358    1.399051    0.028778
O      -0.034134   -0.006369    0.004485
C       0.642855   -0.522601   -1.120094
C       0.615443   -2.043161   -1.048440
C       1.335735   -2.696169   -2.229966
C       1.262994   -4.235428   -2.185902
O      -0.081573   -4.709651   -2.163483
C       2.023778   -4.832321   -3.288092
C       2.615853   -5.298719   -4.224858
H       0.948995    1.831233    0.061936
H      -0.581905    1.813891   -0.851434
H      -0.605034    1.700735    0.929312
H       0.162399   -0.172654   -2.051526
H       1.684388   -0.154569   -1.142932
H       1.079446   -2.357022   -0.105273
H      -0.423462   -2.384062   -1.016606
H       0.901296   -2.358139   -3.180498
H       2.392262   -2.402192   -2.250760
H       1.689384   -4.576263   -1.233802
H      -0.438536   -4.607006   -3.052921
H       3.148062   -5.726315   -5.038527
