18

C       0.046834    1.721097    0.094992
C      -0.025515    0.209618   -0.007795
C       1.145351   -0.548555   -0.693251
O       2.024356   -0.208433    0.446054
C       0.735098   -0.652075    1.041382
C       0.768110   -1.860850    0.069731
C      -0.465952   -2.685220   -0.260010
N      -0.171993   -3.902577   -0.803737
O      -1.614794   -2.328393   -0.067759
H       1.056259    2.048765    0.351189
H      -0.242060    2.186408   -0.853743
H      -0.645670    2.087679    0.860282
H      -1.021348   -0.160655   -0.248649
H       1.561741   -0.448178   -1.697127
H       0.661015   -0.662916    2.129212
H       1.651738   -2.483442    0.228124
H       0.769240   -4.204135   -0.982128
H      -0.935855   -4.498073   -1.079248
