16

N      -0.024212    1.500938    0.055322
C       1.274915    0.792520   -0.026287
C       0.002101    0.032001   -0.019746
C      -0.263991   -0.594211   -1.389948
O      -0.265756    0.388807   -2.399263
C       1.100680    0.665291   -2.606943
C       1.841989   -0.546971   -2.142423
O       0.859864   -1.441487   -1.667626
C       1.963484    0.766450   -1.356299
H      -0.189433    1.776606    1.020528
H       1.909317    0.777154    0.855655
H      -0.281051   -0.562256    0.843689
H      -1.178401   -1.185655   -1.454863
H       1.287992    1.239360   -3.503734
H       2.670093   -1.038484   -2.633791
H       2.896734    1.309166   -1.466140
