21

C      -0.096036    1.340931   -0.036172
O      -0.063956   -0.064906   -0.061002
C       0.743393   -0.577574   -1.101536
C       0.667329   -2.094572   -1.070262
C      -0.757628   -2.667681   -1.373670
C      -0.385989   -3.469888   -2.636843
C       0.900942   -4.221788   -2.231116
C       1.391407   -2.759270   -2.267174
O       0.456600   -2.518087   -3.367523
H       0.905144    1.771411    0.127852
H      -0.495651    1.758424   -0.974151
H      -0.746859    1.640575    0.789196
H       0.395323   -0.211715   -2.080697
H       1.787862   -0.241254   -0.973446
H       1.060267   -2.452994   -0.113779
H      -1.155254   -3.291864   -0.569668
H      -1.480472   -1.878391   -1.588603
H      -1.178188   -3.914142   -3.239275
H       0.925296   -4.773315   -1.287371
H       1.310406   -4.808596   -3.053697
H       2.420730   -2.473106   -2.487348
