15

N       0.073172    1.456775    0.138858
C       0.038976    0.047200    0.022964
C      -1.061694   -0.786968   -0.024108
N      -0.665055   -2.119125   -0.059091
C       0.708715   -2.149708   -0.032488
C       1.162279   -0.831645    0.020385
N       2.523322   -0.908898    0.033852
N       2.956665   -2.195702    0.014376
C       1.864391   -2.958619   -0.033086
H       0.556577    1.887992   -0.643292
H      -0.862374    1.844881    0.169320
H      -2.109200   -0.526543   -0.032445
H      -1.285805   -2.905352   -0.013845
H       3.200763   -0.175618    0.138739
H       1.965970   -4.032572   -0.065026
