18

C       0.092256    1.550789    0.008960
C       0.011350    0.022007    0.001866
C      -1.430246   -0.496181    0.012982
C      -1.519174   -2.020578    0.005998
C      -2.934850   -2.555379    0.016878
O      -3.926553   -1.871432    0.030267
C      -3.060128   -4.101552    0.009691
O      -4.118645   -4.664348    0.016562
H       1.130874    1.895019    0.000816
H      -0.407887    1.976808   -0.867602
H      -0.391020    1.967716    0.899247
H       0.532767   -0.369278   -0.882080
H       0.549530   -0.378306    0.871609
H      -1.960129   -0.112949    0.892956
H      -1.976808   -0.103968   -0.852722
H      -1.007043   -2.447505   -0.870941
H      -0.990388   -2.456409    0.868562
H      -2.094553   -4.657493   -0.002369
