12

O      -0.727738    0.718590    0.537921
C       0.083842    0.964241   -0.308291
C       1.343319    1.798114   -0.051936
O       2.467367    0.983279   -0.315851
C       3.384807    1.736830   -1.086302
C       2.577586    2.911259   -1.618955
O       2.873843    3.738146   -2.421655
O       1.368377    2.874727   -0.978007
H       0.010442    0.600973   -1.355622
H       1.344906    2.190411    0.973685
H       4.223812    2.107979   -0.481501
H       3.779087    1.128400   -1.903961
