15

O      -0.000456    1.407531    0.006307
C      -0.028503   -0.001041    0.002376
C      -1.438329   -0.485473    0.012426
C      -2.542530    0.285595    0.023631
C      -3.761461   -0.532802    0.030945
O      -4.919804   -0.194027    0.042599
C      -3.268399   -2.011297    0.023246
O      -3.968777   -2.984183    0.027544
C      -1.738580   -1.967109    0.010894
H       0.916427    1.696208   -0.000322
H       0.476616   -0.424621   -0.884750
H       0.490982   -0.429840    0.878626
H      -2.544084    1.366300    0.026902
H      -1.342708   -2.482913   -0.872897
H      -1.328273   -2.487637    0.885280
