17

C      -0.128217   -1.251076   -0.183592
C      -0.063639   -0.054843   -0.080204
C       0.012107    1.398451    0.051925
C      -0.550977    1.898181    1.372451
C       0.370357    2.492060    2.126709
C       1.730868    2.514145    1.479443
C       1.458453    1.959019    0.078986
C       2.496442    1.532127   -0.857733
O       1.821067    2.785076   -1.028413
H      -0.187563   -2.307385   -0.274298
H      -0.504998    1.855480   -0.802578
H      -1.590376    1.745664    1.635513
H       0.188545    2.913218    3.108993
H       2.160131    3.519560    1.403376
H       2.451804    1.898928    2.033931
H       3.544681    1.602310   -0.568651
H       2.268111    0.769296   -1.600091
