21

C      -0.277509    1.581293    0.053094
C       0.042826    0.090803   -0.012295
C       0.627561   -0.553141   -1.274356
C       2.144406   -0.440906   -1.347360
C       2.882576    0.632920   -0.546758
C       2.438049    0.380613    0.918448
C       1.229242   -0.562612    0.794253
O       0.892794   -1.262659    1.963761
C       1.520444   -1.458241   -0.440559
H       0.575169    2.211428   -0.213997
H      -1.091793    1.825964   -0.638405
H      -0.608909    1.872939    1.057076
H      -0.848036   -0.482713    0.268973
H       0.058829   -0.812452   -2.160923
H       2.573533   -0.779096   -2.284754
H       3.964699    0.509349   -0.655123
H       2.646026    1.644726   -0.890906
H       3.220737   -0.136274    1.483802
H       2.193799    1.304052    1.455631
H       0.714856   -0.618879    2.657696
H       1.656862   -2.530802   -0.446358
