17

C       0.025425    1.409804    0.193792
N      -0.001766    0.041629   -0.298330
C       1.215127   -0.706434   -0.050559
C      -1.184369   -0.672452   -0.100415
C      -1.322994   -2.005335    0.181036
O      -2.648635   -2.348217    0.225733
C      -3.353176   -1.219932   -0.009126
C      -2.528544   -0.162274   -0.215109
H       0.924219    1.907317   -0.182442
H      -0.839801    1.963754   -0.176285
H       0.029783    1.475849    1.295584
H       1.333388   -1.005543    1.006390
H       1.220294   -1.613457   -0.663145
H       2.078986   -0.099352   -0.334045
H      -0.627572   -2.806597    0.354474
H      -4.426064   -1.322747   -0.000187
H      -2.832881    0.848452   -0.432987
