19

O      -0.083822   -0.015579    0.026596
C      -0.007824    1.194045    0.038105
C       1.248439    1.947580   -0.000277
C       1.245555    3.291416    0.015600
C       2.563749    4.015200   -0.025589
C       3.441583    3.347434   -1.135073
C       3.730810    2.229413   -0.090584
C       3.522053    3.322377    0.998655
C       2.573033    1.216987   -0.058761
H      -0.923433    1.828168    0.080090
H       0.311744    3.847545    0.057290
H       2.464003    5.100710   -0.009079
H       2.949760    3.073111   -2.071642
H       4.334813    3.941350   -1.344314
H       4.699033    1.726222   -0.133014
H       4.429027    3.912013    1.153915
H       3.101920    3.025717    1.962910
H       2.663337    0.545504    0.804256
H       2.597469    0.565842   -0.941507
