13

C       0.046465    1.465550   -0.205905
N      -0.042864    0.014769   -0.221436
C      -1.089938   -0.571259    0.148114
N      -1.142470   -1.969197    0.121483
C      -2.184858   -2.748354    0.504295
O      -2.231433   -3.944484    0.474629
N      -3.342943   -1.992242    1.001335
N      -3.404140   -0.788248    1.055330
O      -2.226570    0.029636    0.584370
H       1.012119    1.751919    0.221542
H       0.026586    1.841487   -1.235413
H      -0.751786    1.958494    0.358085
H      -0.305599   -2.426974   -0.215814
