21

C      -0.577331    1.424811   -0.276483
C      -0.199559   -0.039562   -0.021294
C       0.497400   -0.668882   -1.209502
O       1.610700    0.024171   -1.710605
C       2.753660    0.002833   -0.874175
C       0.620924   -2.175012   -1.454206
C      -0.684002   -2.881655   -1.113772
O      -1.451365   -1.931278   -1.907429
C      -0.244164   -1.305622   -2.346800
H       0.303945    2.026436   -0.514748
H      -1.270431    1.504360   -1.119893
H      -1.062938    1.860299    0.601877
H       0.437644   -0.116350    0.868935
H      -1.103806   -0.614767    0.192933
H       2.595984    0.564339    0.056436
H       3.051536   -1.022599   -0.615388
H       3.562032    0.477413   -1.435366
H       1.573677   -2.645917   -1.654428
H      -0.761281   -3.885810   -1.546175
H      -1.004605   -2.907301   -0.065820
H      -0.160240   -0.995523   -3.381988
