16

O       0.058240    1.396298   -0.015902
C       0.000419    0.031152    0.005135
C       0.007686   -0.819239    1.333513
N      -1.429225   -0.422026    1.567821
C      -1.348189   -0.781245    0.104350
C      -0.406731   -1.994795    0.391283
C       0.610867   -2.164841   -0.736388
C       0.878986   -0.682853   -0.987008
O       1.607961   -0.130402   -1.774152
H       0.694863    1.619013   -0.713871
H       0.761202   -0.804749    2.122822
H      -1.906654   -1.178193    2.071053
H      -2.206209   -0.721506   -0.567390
H      -0.853909   -2.871921    0.857534
H       1.524339   -2.691459   -0.441130
H       0.212360   -2.655193   -1.630629
