18

C      -0.041963    1.521346   -0.068475
C      -0.025549    0.002702    0.110855
O       0.618545   -0.378643    1.315984
C      -1.431763   -0.618854    0.035523
C      -1.416802   -2.140766    0.063941
O      -2.145237   -0.131508    1.198548
C      -3.418870    0.277813    1.055459
O      -4.078333    0.672274    1.969245
H       0.975116    1.912074    0.012051
H      -0.444821    1.802039   -1.047859
H      -0.655516    1.997920    0.702707
H       0.570801   -0.448858   -0.691097
H       0.060176   -0.069834    2.040193
H      -1.940479   -0.254251   -0.866947
H      -0.912279   -2.528450   -0.826535
H      -0.877997   -2.490655    0.946978
H      -2.434264   -2.541053    0.084148
H      -3.774684    0.211949    0.008590
