14

N       0.070991    1.340618    0.123311
C      -0.022596   -0.009976    0.037766
N      -1.074979   -0.744489    0.011211
C      -0.639316   -2.156732   -0.011342
C       0.862171   -2.085497   -0.011662
N       1.967940   -2.800756   -0.040694
C       2.932934   -1.824094   -0.024187
N       2.499950   -0.565731    0.013209
N       1.164295   -0.771838    0.023118
H       0.943861    1.757151   -0.160175
H      -0.768439    1.856527   -0.085684
H      -1.030528   -2.691871    0.861326
H      -1.032187   -2.662463   -0.900303
H       3.989084   -2.050626   -0.039443
