19

O      -0.086987    1.366894    0.019816
C       0.025631   -0.033560    0.011284
C      -0.464216   -0.782377   -1.214692
C      -1.298190   -0.736116    0.040210
O      -1.435173   -1.914583    0.778582
C      -1.326037   -1.722561    2.176354
O      -0.015438   -1.769029    2.655836
C       0.805144   -0.650422    2.341990
C       1.164789   -0.586765    0.852608
H       0.624201    1.724797   -0.523976
H      -0.814245   -0.201779   -2.060852
H       0.013633   -1.725571   -1.454962
H      -2.180650   -0.097082    0.026439
H      -1.809639   -0.771643    2.458663
H      -1.842988   -2.565992    2.639572
H       0.314011    0.286368    2.648417
H       1.706706   -0.777137    2.948775
H       1.441659   -1.592849    0.524968
H       2.044916    0.054642    0.714159
