18

C       0.130379    1.550409   -0.121868
C       0.033317    0.035832   -0.011577
O       0.587926   -0.525532   -1.192747
C       0.583219   -1.949582   -1.162941
C       1.616885   -2.396483   -0.138022
O       2.515073   -3.165082   -0.370879
N       1.459307   -1.779398    1.120101
C       2.203380   -0.547657    1.399868
C       0.718979   -0.524761    1.228774
H       1.175535    1.862363   -0.197590
H      -0.402476    1.898865   -1.010186
H      -0.311875    2.025836    0.758661
H      -1.030441   -0.256271    0.048456
H      -0.419172   -2.339642   -0.923863
H       0.882096   -2.301794   -2.150505
H       2.639183   -0.472081    2.391710
H       2.816443   -0.156101    0.592594
H       0.116143   -0.458918    2.133286
