18

C       0.278657    1.450253    0.025671
O       1.165301    0.379758   -0.276806
C      -0.207338    0.056854    0.023230
C      -0.463882   -0.704581    1.258508
C      -1.381773   -1.665435    1.400010
C      -1.423251   -2.218892    2.802946
C      -0.107992   -1.680212    3.422636
C       0.281239   -0.456826    2.555521
H       0.460204    1.956302    0.972348
H       0.023693    2.103336   -0.808498
H      -0.778652   -0.266674   -0.847200
H      -2.053760   -1.996683    0.614756
H      -2.310039   -1.850560    3.339402
H      -1.484375   -3.312716    2.829521
H      -0.205754   -1.434366    4.482927
H       0.670294   -2.445050    3.337557
H       1.360599   -0.364821    2.401899
H      -0.052144    0.485060    3.014566
