14

N       0.009267    1.386983    0.146107
C      -0.054659    0.009277    0.053012
C      -1.206800   -0.722170    0.035125
N      -1.166147   -2.095520   -0.007885
C       0.010554   -2.774115   -0.026744
C       1.188469   -2.091905   -0.012514
F       2.332285   -2.777288   -0.047478
C       1.263844   -0.649801    0.016596
O       2.307064    0.007936    0.001923
H       0.950383    1.705581   -0.060726
H      -0.718479    1.914896   -0.309822
H      -2.194127   -0.279109    0.058214
H      -2.029659   -2.609990   -0.017065
H      -0.030019   -3.854520   -0.056647
