18

C       0.037377    1.324688    0.050447
N       0.002013   -0.123324    0.125389
C      -1.114667   -0.677351    0.017324
O      -1.164451   -2.056465    0.082608
C      -2.373932   -2.662462   -0.021390
O      -3.423619   -2.087095   -0.165261
C      -2.253054   -4.175807    0.062575
C      -1.672657   -4.617728    1.413560
O      -3.513594   -4.755914   -0.157939
H       0.695539    1.623963   -0.771973
H      -0.947965    1.791457   -0.098319
H       0.477772    1.719663    0.971959
H      -2.090402   -0.209971   -0.127862
H      -1.557281   -4.481049   -0.734763
H      -2.315610   -4.281299    2.232309
H      -1.632371   -5.709094    1.436782
H      -0.665780   -4.219446    1.558922
H      -4.139745   -4.023794   -0.251155
