18

C       0.516013    1.203464   -0.302524
O      -0.150814    0.128171    0.317018
C       0.707779   -0.679668    1.085441
C      -0.144185   -1.799412    1.695318
C       0.643460   -2.706610    2.518965
C       1.319594   -3.438184    3.192274
C       2.127058   -4.336598    4.013962
C       3.547186   -3.960527    4.049807
N       4.665153   -3.674361    4.085167
H       1.300472    0.854181   -0.991966
H      -0.229210    1.765532   -0.870122
H       0.982244    1.874251    0.435975
H       1.508985   -1.110614    0.463624
H       1.192213   -0.095674    1.884555
H      -0.945640   -1.344204    2.289035
H      -0.631922   -2.349358    0.881861
H       1.754446   -4.357322    5.046366
H       2.057401   -5.367751    3.643826
