18

C      -0.183514    1.594028    0.111531
C       0.097883    0.111574    0.019033
C      -1.074552   -0.878335    0.244101
O      -0.335675   -1.589610    1.261556
C       0.775999   -0.667686    1.183005
C       2.023422   -1.285146    0.565453
C       1.655799   -1.314398   -0.926757
O       0.868264   -0.143508   -1.144531
H       0.752773    2.158900    0.142795
H      -0.750147    1.928261   -0.763512
H      -0.765508    1.826231    1.007724
H      -1.993370   -0.431749    0.644484
H      -1.320295   -1.510364   -0.617269
H       0.944549   -0.151853    2.133627
H       2.884568   -0.631214    0.740741
H       2.241695   -2.273333    0.977218
H       2.514540   -1.266265   -1.600558
H       1.079743   -2.220640   -1.162329
