18

C       0.029784    1.464025    0.065544
N       0.070809    0.012403   -0.058227
C       0.631834   -0.696466    0.996573
N       1.255917   -0.148991    2.033616
N       1.658492   -1.209812    2.740774
N       1.342164   -2.409636    2.242970
C       0.686324   -2.110355    1.127174
N       0.110921   -3.039608    0.269643
C       0.382978   -4.446294    0.537017
H       1.050759    1.847292    0.137760
H      -0.437020    1.881512   -0.829795
H      -0.517740    1.811156    0.953779
H      -0.819807   -0.383964   -0.332806
H       2.164753   -1.110676    3.601804
H       0.263690   -2.787133   -0.699196
H       1.454738   -4.692330    0.531822
H      -0.009658   -4.706874    1.523136
H      -0.128424   -5.053551   -0.213678
