19

O      -0.067485    1.388235    0.062973
C       0.055036   -0.020825   -0.041317
C      -1.345965   -0.596681    0.117522
C      -1.388295   -2.103087    0.041526
O      -0.384098   -2.785543   -0.024841
C      -2.745368   -2.801863    0.067198
O      -2.577173   -4.183388   -0.147694
C      -3.470184   -2.602235    1.416943
O      -4.624988   -3.403170    1.464053
H       0.808844    1.773146   -0.028917
H       0.471040   -0.324833   -1.012779
H       0.713262   -0.434803    0.734983
H      -1.766361   -0.278463    1.081293
H      -2.017094   -0.177141   -0.642566
H      -3.380975   -2.386907   -0.729210
H      -1.616581   -4.329892   -0.116217
H      -2.769852   -2.848055    2.233480
H      -3.787732   -1.561768    1.539471
H      -4.341618   -4.279110    1.170076
