17

O       0.323355    1.281434   -0.478434
C       0.139975   -0.044921   -0.073891
C       0.829874   -1.017782   -0.997187
C      -0.002052   -1.917771   -1.521181
C      -1.424671   -1.763245   -1.037708
C      -1.297196   -0.722721    0.083411
C      -0.868546   -1.270452    1.483773
C       0.303821   -0.287991    1.432828
O       0.902112    0.347706    2.257043
H       0.530362    1.793619    0.314456
H       1.886897   -0.918768   -1.214323
H       0.288935   -2.687590   -2.227974
H      -2.086185   -1.439300   -1.851320
H      -1.839540   -2.706359   -0.659416
H      -2.114219   -0.004604    0.147257
H      -1.551385   -1.122735    2.322720
H      -0.556954   -2.318535    1.454246
