18

O      -0.068586    1.487558   -0.183237
C       0.031985    0.082590   -0.155900
C      -1.334615   -0.591571    0.030644
C      -1.368931   -2.128304    0.009556
C      -2.642280   -2.492108    0.806598
C      -2.680288   -1.457685    1.943805
C      -1.970967   -0.229130    1.376068
O      -1.889251    0.852132    1.915345
H      -0.556672    1.734766    0.615661
H       0.471943   -0.227765   -1.110233
H       0.712204   -0.265162    0.641541
H      -2.009873   -0.193720   -0.741995
H      -1.369764   -2.540896   -1.002056
H      -0.482213   -2.524173    0.522177
H      -3.523871   -2.376617    0.165912
H      -2.635884   -3.523477    1.166414
H      -3.675760   -1.202806    2.315619
H      -2.095991   -1.794166    2.810663
