16

O      -0.376915    0.238185   -0.402300
C      -0.021136    1.317908   -0.021719
N       1.287073    1.730411    0.199454
C       2.449347    0.976585    0.026578
O       2.520719   -0.158289   -0.345225
O       3.495727    1.770346    0.374434
C       4.775446    1.175137    0.236501
C       5.597709    1.547251   -0.958670
C       5.927488    2.106094    0.413048
H      -0.718914    2.148575    0.207592
H       1.425995    2.675318    0.525914
H       4.814454    0.163286    0.619557
H       6.239474    0.788812   -1.391748
H       5.148159    2.227424   -1.672867
H       5.692716    3.149262    0.591058
H       6.803211    1.741816    0.937542
