15

C      -0.113416    1.531574   -0.100205
C      -0.081165    0.026123    0.081163
O      -0.115736   -0.511820    1.159033
C       0.039931   -0.782467   -1.213378
C       1.534763   -0.945306   -1.658095
N       1.803767   -2.381912   -1.512428
C       0.709776   -2.906684   -1.153441
O      -0.392721   -2.134554   -0.993234
H       0.673552    1.867284   -0.784741
H      -1.070380    1.824349   -0.548808
H      -0.002798    2.024187    0.866103
H      -0.584933   -0.344206   -1.997255
H       1.695819   -0.634308   -2.695123
H       2.223295   -0.370434   -1.029780
H       0.547666   -3.960665   -0.960594
