18

O      -0.229273    0.179709    0.094669
C       0.031756    1.362186    0.018541
N       1.281031    1.882272   -0.107774
C       2.478515    1.088554   -0.093320
C       3.326327    0.946819   -1.406820
C       4.566836    1.528573   -0.671885
C       4.653250    3.059290   -0.734914
O       3.687860    3.202228    0.342493
C       3.685341    1.775925    0.586749
H      -0.741872    2.155256    0.040892
H       1.411946    2.883698   -0.111729
H       2.233490    0.116758    0.338365
H       3.436444   -0.086418   -1.741247
H       2.972014    1.548872   -2.247901
H       5.490361    0.953558   -0.677872
H       5.624213    3.477956   -0.442598
H       4.317061    3.539421   -1.661758
H       3.931386    1.532718    1.623424
