8

O      -0.095862    0.018632    0.000408
C      -0.008376    1.212428    0.006309
C       1.367159    1.928977   -0.000631
O       2.400645    1.306616   -0.012192
C       1.282745    3.373119    0.007882
C       1.155959    4.570895    0.015415
H      -0.889642    1.888906    0.016938
H       1.066659    5.630871    0.022191
