12

O       0.335849   -0.134616   -0.135122
C       0.471734    1.016931   -0.377812
O       0.412645    1.974395    0.617522
C       0.681502    3.255394    0.268093
C       1.740915    3.833424   -0.311784
O       1.499954    5.189721   -0.425520
C       0.256513    5.475099    0.112358
O      -0.227085    6.567555    0.173473
N      -0.248827    4.255701    0.525814
H       0.659077    1.474401   -1.364029
H       2.687100    3.459098   -0.657308
H      -1.131172    4.148087    0.995686
