15

O       0.013833    0.020073   -0.053259
C      -0.012070    1.219700   -0.003868
C      -1.218558    2.171167    0.030697
C      -0.443231    3.476126    0.009509
C       0.797756    3.390996   -0.924241
C       1.509631    4.274999    0.103840
N       0.731073    3.317633    1.014210
C       1.144374    2.194900    0.015007
H      -1.877360    2.024531   -0.830383
H      -1.803337    2.033274    0.945461
H      -0.984708    4.418768    0.099719
H       0.837435    3.414987   -2.019021
H       2.594258    4.185537    0.204071
H       1.189841    5.317499    0.198007
H       2.158285    1.809560    0.109417
