22

C      -0.349575    1.706087    0.174939
C       0.097426    0.248347    0.034259
C      -1.152162   -0.672248   -0.099366
C      -1.950061   -0.404065   -1.294151
N      -2.567948   -0.181683   -2.245616
C       1.074119    0.025853   -1.143159
C       1.817655   -1.290240   -0.825818
C       1.756992   -1.447615    0.722618
C       0.939819   -0.239062    1.237112
H       0.518899    2.364765    0.273994
H      -0.924757    2.034900   -0.696416
H      -0.978517    1.846562    1.061593
H      -0.857359   -1.726900   -0.120158
H      -1.795150   -0.544726    0.779325
H       0.569692    0.012983   -2.113620
H       1.781501    0.862858   -1.163110
H       1.331535   -2.138240   -1.318041
H       2.844617   -1.269066   -1.198946
H       1.276473   -2.391799    0.997043
H       2.752512   -1.471377    1.173234
H       1.613286    0.572645    1.534346
H       0.327506   -0.477049    2.113470
