17

N      -0.016100    1.233429    0.479640
C       0.037556    0.000690   -0.087672
O       1.022087   -0.480714   -0.617626
C      -1.263849   -0.748173   -0.007416
C      -2.108359   -1.028584   -1.271210
C      -3.278082   -0.952206   -0.306634
C      -2.856903   -1.543101    1.001752
C      -1.414740   -2.001981    0.883570
N      -2.519002   -0.112265    0.683668
H       0.807478    1.811868    0.480258
H      -0.870970    1.555984    0.903546
H      -2.100287   -0.173694   -1.951645
H      -1.914001   -1.951076   -1.824685
H      -4.317304   -0.741653   -0.532308
H      -3.573469   -1.785188    1.778381
H      -1.184075   -2.975714    0.443421
H      -0.882727   -1.882502    1.830425
