23

C      -0.049304    1.398105   -0.019389
O      -0.084593   -0.005864   -0.078205
C       0.762385   -0.540286   -1.076958
C       0.644274   -2.059460   -1.056519
C       1.119323   -2.618722    0.285292
C      -0.744455   -2.662360   -1.482101
C      -0.045028   -3.455384   -2.593550
C       0.621598   -2.515495   -3.554198
C       1.295287   -2.805693   -2.239670
H       0.959623    1.773240    0.216548
H      -0.368221    1.856673   -0.969470
H      -0.735824    1.712526    0.770906
H       0.479830   -0.136237   -2.062217
H       1.810192   -0.240409   -0.893648
H       0.532688   -2.196858    1.105390
H       1.024457   -3.709023    0.308998
H       2.173656   -2.370824    0.459067
H      -1.180530   -3.282966   -0.696554
H      -1.500733   -1.944730   -1.816051
H      -0.247560   -4.487247   -2.853243
H       1.091775   -2.981914   -4.414522
H       0.182444   -1.544248   -3.768544
H       2.280187   -3.258257   -2.198730
