14

N       0.060865    1.316538   -0.047416
C       0.005604    0.052554   -0.009011
N      -1.199903   -0.637135    0.041702
C      -1.447785   -2.086354    0.067165
C      -2.976334   -1.774320    0.071085
C      -3.742721   -2.247632    1.205449
N      -4.341643   -2.627009    2.118189
C      -2.544181   -0.262227    0.088679
O      -3.116896    0.778539    0.113516
H       1.030296    1.627681   -0.077332
H       0.857145   -0.639524   -0.010067
H      -1.095068   -2.614493   -0.822129
H      -1.086314   -2.581164    0.971485
H      -3.478199   -2.033574   -0.864150
