20

C       0.123549    1.667005   -0.154181
C       0.102778    0.147645   -0.027243
C       1.107330   -0.680968   -0.832254
C       2.493326   -0.467209   -0.385987
N       1.645241   -1.398906    0.399274
C       0.701279   -0.569710    1.232906
C       1.249965    0.208159    2.400885
C       2.536748   -0.115321    3.030123
O       2.388035    1.059304    2.224074
H       1.111501    2.083055    0.055639
H      -0.167696    1.970276   -1.165888
H      -0.584456    2.126598    0.544154
H      -0.914501   -0.215047   -0.200551
H       0.869271   -1.232096   -1.736636
H       3.268127   -1.000463   -0.928854
H       2.804989    0.470426    0.056950
H      -0.036565   -1.261510    1.654592
H       0.476344    0.649594    3.033187
H       2.682831    0.067980    4.093151
H       3.149197   -0.901266    2.594017
