16

C      -0.424967    1.316155    0.399693
C       0.147092   -0.044036    0.052450
O       0.370067   -0.752194    1.290382
C       0.865000   -1.991722    1.171787
O       1.135643   -2.530714    0.126940
C       1.076410   -2.650571    2.504878
C       1.589552   -1.891593    3.662167
O       0.226471   -2.277725    3.585946
H       0.270933    1.885819    1.021927
H      -0.611606    1.883577   -0.516829
H      -1.368659    1.214996    0.942502
H      -0.535326   -0.631965   -0.568842
H       1.097036    0.032437   -0.485916
H       1.298205   -3.711273    2.416775
H       2.191324   -2.414223    4.403979
H       1.779446   -0.826521    3.550960
