17

O       0.060028    0.186882   -0.739390
C      -0.007349    1.249545   -0.172188
C      -1.266865    1.937690    0.366713
N      -0.882646    3.256563    0.885817
C      -0.009313    3.205144    2.062091
C       0.593144    3.409248    0.719538
C       1.149051    2.190948    0.053786
C       2.509619    1.606368    0.238414
N       2.169057    2.295237   -1.003129
H      -1.978468    2.058773   -0.458272
H      -1.754604    1.320285    1.128592
H      -0.116246    4.041975    2.746006
H       0.154794    2.242236    2.545647
H       0.952116    4.381684    0.398984
H       3.214172    2.128833    0.879319
H       2.584086    0.522017    0.228399
H       1.952003    1.599962   -1.718013
