19

C       0.542835    1.487594   -0.513213
C       0.148291    0.119109   -0.023822
O       1.189822   -0.852656    0.140382
C       0.469097   -0.439958    1.303418
C       1.227833    0.239739    2.388817
C       0.689580    0.778243    3.744509
C       2.172800    1.182771    3.587579
C       2.515612   -0.246581    3.114205
O       1.893565    1.554930    2.180036
H       1.454854    1.831129   -0.027271
H       0.699143    1.457225   -1.596892
H      -0.257362    2.207621   -0.310988
H      -0.746067   -0.293040   -0.498227
H      -0.203652   -1.204541    1.701734
H      -0.027072    1.596616    3.665107
H       0.431000    0.051548    4.518891
H       2.765628    1.881475    4.176388
H       2.422616   -1.066091    3.831179
H       3.391834   -0.330135    2.471747
