17

C       0.091445    1.576463   -0.199983
O       1.430394    1.553302    0.347233
C       1.428279    0.134988    0.520908
C       0.865194   -0.278250    1.931015
C      -0.445184   -0.583991    1.224132
C      -1.310324   -1.568334    1.006596
C      -1.652393   -1.565391   -0.473578
O      -0.733516   -0.628777   -1.083413
C      -0.072106    0.052706   -0.064940
H      -0.593975    2.210153    0.375391
H       0.097845    1.898327   -1.248083
H       2.323911   -0.364935    0.147713
H       1.328677   -1.137185    2.421447
H       0.868932    0.576772    2.610590
H      -1.612350   -2.364666    1.674701
H      -1.495597   -2.557641   -0.917776
H      -2.682557   -1.257601   -0.706474
