16

O       0.041099    1.423362   -0.126232
C       0.064142    0.024571    0.018460
C      -1.350811   -0.546519    0.109894
N      -1.986967   -0.188049   -1.224575
C      -2.509004   -1.297800   -1.534313
O      -1.932879   -2.162123   -2.476630
C      -1.653957   -2.944890   -1.229237
C      -1.447170   -2.095901    0.131143
C      -2.775989   -2.410693   -0.468846
H      -0.512319    1.587774   -0.901458
H       0.593799   -0.471288   -0.809045
H       0.598835   -0.198732    0.950290
H      -1.864629   -0.108503    0.977673
H      -1.268631   -3.943302   -1.394329
H      -1.044803   -2.666146    0.965694
H      -3.701440   -2.821140   -0.090128
