19

C       0.002264    1.498317   -0.133980
C      -0.021662    0.045822   -0.056061
C      -0.038795   -1.156964    0.019736
C      -0.061300   -2.595331    0.084008
C       0.615254   -3.428854   -1.039596
C      -0.628317   -4.368953   -1.086731
C      -1.335531   -3.513743   -0.002296
C      -0.981499   -3.895729    1.438615
O       0.248036   -3.134251    1.400406
H       0.649690    1.845090   -0.946937
H      -1.000118    1.904531   -0.309751
H       0.377066    1.934581    0.798491
H       0.770054   -2.861847   -1.960099
H       1.560555   -3.875686   -0.725700
H      -1.141165   -4.359793   -2.050594
H      -0.451603   -5.410137   -0.803842
H      -2.337409   -3.141190   -0.208197
H      -1.668438   -3.500256    2.198136
H      -0.804716   -4.960750    1.635261
