21

C       0.281010    1.648923   -0.687464
O      -0.354438    0.402888   -0.513639
C       0.425874   -0.680339   -0.940548
C       1.618619   -1.141523   -0.049522
C       1.139398   -2.596192   -0.261531
C       1.940408   -3.574187   -1.150398
C       1.950054   -4.475319    0.098434
O       1.190011   -3.506644    0.850331
C      -0.235284   -2.053475   -0.711630
H       1.209241    1.723922   -0.101067
H       0.526683    1.836430   -1.745006
H      -0.413703    2.419642   -0.345093
H       0.739502   -0.536430   -1.986454
H       2.639782   -0.887890   -0.345046
H       1.447191   -0.843855    0.989321
H       1.395864   -3.970175   -2.009972
H       2.917220   -3.213084   -1.478361
H       1.418385   -5.429727    0.005543
H       2.933867   -4.659814    0.546277
H      -0.911651   -1.995986    0.145840
H      -0.741579   -2.540752   -1.548039
