19

C      -0.008449   -1.207447   -0.003738
C      -0.020598   -0.005752    0.002287
C      -0.005590    1.451695    0.009329
C       1.420996    2.034705   -0.000360
C       1.411248    3.556854    0.007228
O       2.749525    4.008254   -0.002355
C       2.845218    5.418682    0.003805
C       4.244298    5.824811   -0.006515
C       5.388819    6.187505   -0.014802
H      -0.008342   -2.269078   -0.008964
H      -0.561994    1.824873   -0.860913
H      -0.546556    1.816239    0.892864
H       1.974246    1.674301    0.872306
H       1.958759    1.682970   -0.886146
H       0.868383    3.944501   -0.873138
H       0.884037    3.935757    0.900815
H       2.329070    5.844901   -0.874036
H       2.344667    5.836116    0.894801
H       6.403414    6.501005   -0.022179
