20

C      -0.044851    1.453384   -0.093506
C       1.190739    2.315037    0.256490
C       2.514592    1.771134   -0.243531
N       3.633635    1.778292    0.722520
C       3.078967    0.492511    0.267127
C       2.366169   -0.399232    1.237124
O       1.375848    0.152610    2.103575
C       0.934698   -0.697784    1.038640
C       0.151322   -0.080279   -0.114689
H      -0.836115    1.701385    0.622084
H      -0.434108    1.734154   -1.079654
H       1.044354    3.326857   -0.140529
H       1.271238    2.402261    1.338987
H       2.761343    2.002280   -1.279405
H       4.514739    1.961810    0.249407
H       3.680148   -0.085463   -0.436020
H       2.994552   -1.151977    1.716555
H       0.573029   -1.667486    1.383169
H      -0.839692   -0.546006   -0.152492
H       0.651433   -0.371041   -1.047587
