16

O       0.101170    1.320722   -0.160890
C       0.004525   -0.041951   -0.015997
C      -0.378212   -0.696825    1.253286
C      -1.388592   -0.741044    0.095708
C      -2.544413    0.162981    0.164309
O      -2.500695    1.254477    0.702879
C      -3.820366   -0.335545   -0.532899
C      -4.933842    0.602222   -0.467175
N      -5.831774    1.326388   -0.427264
H      -0.641776    1.723122    0.319573
H       0.708685   -0.550576   -0.666180
H       0.079409   -1.640754    1.527110
H      -0.654542   -0.052009    2.081286
H      -1.524523   -1.682540   -0.424091
H      -3.582476   -0.554065   -1.581571
H      -4.116371   -1.292637   -0.085708
