17

O      -0.005001    0.909530   -0.811152
C      -0.102699   -0.211392    0.028445
C       0.302540   -0.000561    1.510645
C      -0.595561   -0.965701    2.239988
C      -1.590508   -1.419016    1.475865
C      -1.534848   -0.821963    0.098957
O      -2.506809    0.248617   -0.005545
C      -3.231347    0.344892   -1.139363
O      -3.988002    1.245333   -1.343617
H      -0.671856    1.544272   -0.521957
H       0.556568   -0.968596   -0.407761
H       1.368381   -0.184988    1.678160
H       0.110333    1.034010    1.825571
H      -0.440056   -1.239356    3.277886
H      -2.377514   -2.095046    1.787211
H      -1.724213   -1.533957   -0.712105
H      -3.054011   -0.496196   -1.836397
