17

C      -0.079209    1.547560    0.170303
N      -0.062671    0.094933    0.121781
C       0.872119   -0.527832    1.051255
C      -1.299270   -0.513101   -0.024111
N      -2.443696    0.165751   -0.134552
N      -3.364870   -0.783368   -0.312288
N      -2.913418   -2.038586   -0.345211
C      -1.613522   -1.893494   -0.157883
O      -0.751981   -2.934037   -0.109386
H       0.948589    1.912448    0.087370
H      -0.665861    1.937955   -0.663228
H      -0.516665    1.939864    1.102913
H       0.621732   -0.320540    2.105535
H       0.884848   -1.608058    0.904308
H       1.876780   -0.140157    0.857510
H      -4.316810   -0.559631   -0.541756
H      -1.269543   -3.741358   -0.218545
