20

C      -0.044843    1.662706   -0.212590
C      -0.027754    0.123731   -0.107251
C      -1.429405   -0.484608    0.138556
C      -2.128837   -0.034989    1.441469
C      -3.503250   -0.713745    1.604335
C      -1.284501   -0.302626    2.611865
N      -0.615206   -0.520108    3.529221
C       0.552095   -0.468678   -1.311784
C       1.006160   -0.949289   -2.315762
H       0.954960    2.038115   -0.442354
H      -0.719926    1.990376   -1.009582
H      -0.364975    2.119154    0.728255
H       0.608937   -0.150574    0.744819
H      -2.085708   -0.223605   -0.699245
H      -1.342443   -1.575886    0.145147
H      -2.284216    1.049859    1.406940
H      -3.395540   -1.800634    1.656818
H      -4.004449   -0.374947    2.514133
H      -4.137381   -0.470712    0.747228
H       1.422865   -1.377349   -3.193663
