18

C      -0.005269    1.583210    0.009184
C       1.524693    1.595615   -0.078168
C       2.193352    0.724381    0.963394
C       1.694596    0.434683    2.367746
O       0.290314    0.267437    2.471700
C      -0.272769   -0.548116    1.455087
C       0.035036    0.017966    0.071997
C       1.551397    0.071004   -0.222890
H      -0.472613    2.103241    0.848296
H      -0.454523    1.927425   -0.925866
H       2.106576    2.327223   -0.627184
H       3.279128    0.771445    0.910244
H       2.208499   -0.474055    2.730249
H       1.945170    1.250937    3.054343
H       0.096290   -1.585609    1.533889
H      -1.349527   -0.554729    1.653681
H      -0.561369   -0.476408   -0.697256
H       2.085419   -0.550662   -0.931240
