14

C       0.344334    1.619714   -0.304878
C      -0.032896    0.189832   -0.003992
N       1.020130   -0.825200   -0.045222
C       0.429195   -0.517819    1.257910
C       1.256021    0.170484    2.218656
N       1.889674    0.737606    3.001725
C      -1.390517   -0.272111   -0.454841
O      -1.678318   -1.438778   -0.570233
H       1.297200    1.875467    0.160868
H       0.441100    1.769128   -1.384860
H      -0.419201    2.308728    0.070951
H       0.604961   -1.697980   -0.377296
H      -0.263235   -1.236192    1.688081
H      -2.118121    0.533403   -0.683158
