18

C      -0.109050    1.644132   -0.028549
C       0.037579    0.114457   -0.023083
C       1.003650   -0.676876   -0.979468
C       2.414496   -0.331667   -0.495367
N       2.541743    0.919557    0.284313
C       2.235692   -0.343453    0.991995
C       0.750962   -0.693555    1.122501
C       0.732694   -1.831322    0.045039
O       0.507692   -2.998993    0.008725
H       0.459966    2.102690   -0.838094
H      -1.162888    1.913940   -0.152683
H       0.251805    2.088978    0.899511
H      -0.955321   -0.330226   -0.145990
H       0.810953   -0.778401   -2.045045
H       3.280910   -0.759246   -0.985250
H       3.534104    1.112288    0.405139
H       2.962132   -0.780252    1.666511
H       0.311427   -0.811377    2.110336
