18

C      -0.144319    1.432012   -0.076643
C       0.040426   -0.057173    0.114095
C      -1.218382   -0.926529    0.549638
C      -0.100801   -1.835239    1.072908
C       0.348272   -2.703241    0.125548
C       1.466139   -2.062102   -0.557912
C       1.995014   -0.920563    0.216740
C       0.902886   -0.675316    1.243202
N       1.070631   -0.575072   -0.918453
H       0.819359    1.948520   -0.093789
H      -0.650877    1.633336   -1.026239
H      -0.750242    1.846550    0.735243
H      -1.792235   -0.348352    1.284411
H      -1.883270   -1.343238   -0.208756
H      -0.317487   -3.370877   -0.413261
H       2.039737   -2.505738   -1.362804
H       3.033772   -0.613616    0.237427
H       1.045926   -0.204580    2.213060
