17

O      -0.609864    0.586669    0.153129
C       0.080032    1.565556    0.273876
C       1.458729    1.734027   -0.323024
C       1.523839    2.958293   -1.251796
C       2.944919    3.206846   -1.776114
N       3.039035    4.370227   -2.644203
C       3.178741    5.628336   -2.148768
O       3.264934    5.899147   -0.969168
H      -0.277269    2.451278    0.850365
H       2.166013    1.877405    0.506928
H       1.727036    0.811203   -0.846409
H       0.838836    2.818864   -2.096906
H       1.195717    3.854966   -0.714537
H       3.620526    3.375115   -0.932166
H       3.308063    2.334701   -2.329374
H       2.918825    4.256126   -3.637556
H       3.216748    6.390602   -2.952089
