19

O      -0.125854    1.694326    0.233002
C       0.006877    0.299023    0.065895
C      -1.344861   -0.429123   -0.012204
C      -2.314249    0.004169    1.109438
C      -1.704787   -0.027689    2.493166
O      -0.906025    0.791930    2.888354
C      -1.977420   -0.409378   -1.426573
O      -1.587306   -1.777630   -1.663261
C      -1.174626   -1.942809   -0.294450
H      -0.298918    1.834528    1.174957
H       0.548677    0.129819   -0.871639
H       0.610721   -0.144457    0.871279
H      -2.602769    1.041758    0.907220
H      -3.213868   -0.618624    1.081778
H      -2.016352   -0.860293    3.159125
H      -3.069438   -0.289520   -1.438191
H      -1.531585    0.286381   -2.146065
H      -0.153923   -2.338836   -0.215277
H      -1.854644   -2.600578    0.265423
