21

C       0.003728    1.516950   -0.194592
C       1.518250    1.534198    0.192171
C       1.338028    0.109019    0.678068
C       1.877257   -0.647126    1.625259
C       1.331174   -1.998173    2.021452
C       0.375140   -2.631808    0.998552
O      -0.939457   -2.102520    0.932392
C      -1.096885   -0.702117    0.748623
C       0.011883   -0.039694   -0.055712
H      -0.617503    1.987361    0.573087
H      -0.267805    1.925123   -1.170039
H       2.160944    1.604192   -0.693037
H       1.852360    2.280646    0.918045
H       2.749863   -0.290726    2.170475
H       2.168067   -2.696860    2.160084
H       0.832920   -1.941990    3.000357
H       0.856192   -2.606711    0.008810
H       0.224198   -3.684765    1.256628
H      -2.067760   -0.574259    0.253910
H      -1.157417   -0.199165    1.727390
H       0.112448   -0.517343   -1.037920
