16

N       0.569221   -0.759780    0.937754
C       0.270097    0.242573    0.447251
C      -0.146720    1.504998   -0.240429
O      -1.068578    2.213501    0.549863
C      -0.456927    3.230226    1.363307
C       0.182308    4.282588    0.419127
C       1.347720    3.262233    0.328244
C       0.984437    2.823738    1.772537
O       0.981505    2.249864   -0.625973
H      -0.667473    1.210343   -1.157479
H      -1.200512    3.509276    2.108858
H      -0.351206    4.514114   -0.503903
H       0.468276    5.195747    0.945954
H       2.358844    3.572406    0.067376
H       1.389116    3.530103    2.499940
H       1.189564    1.804673    2.098670
