15

C      -0.046583    1.546390   -0.034809
C       1.202407    2.025000   -0.039582
C       2.135340    0.851024    0.016881
C       2.080627    0.026405    1.333300
C       0.644854   -0.523770    1.338798
C       1.722040   -1.194163    0.552321
N       1.372675   -0.294382   -0.643185
C       0.044309    0.049746    0.024884
H      -0.967918    2.114237   -0.004210
H       1.508522    3.063204   -0.013679
H       3.137359    0.980498   -0.394067
H       2.661689    0.124484    2.241467
H       0.153121   -0.836776    2.251074
H       2.107631   -2.201065    0.489144
H      -0.790353   -0.524602   -0.379033
