17

N       0.016653    1.295861   -0.150274
C      -0.068234   -0.060080   -0.009686
N      -1.130582   -0.759782    0.139086
C      -0.700999   -2.143957    0.110821
C      -1.498492   -3.058999    1.002599
O      -2.858568   -3.094911    0.610579
C      -0.061759   -2.605390   -1.185528
C       0.801454   -2.092779   -0.063852
O       1.129662   -0.707947   -0.101271
H       0.892465    1.705798    0.136583
H      -0.805947    1.792927    0.153938
H      -1.120180   -4.084755    0.939759
H      -1.395115   -2.724107    2.047587
H      -3.125210   -2.173354    0.505151
H      -0.021712   -3.675999   -1.358655
H      -0.183197   -1.994342   -2.073876
H       1.554927   -2.687137    0.436736
