23

C      -0.079943    1.577159    0.157333
C      -0.073542    0.046675    0.201776
C      -1.401937   -0.561052   -0.270674
C      -1.488179   -2.079201   -0.123377
C      -0.527521   -2.832622   -1.035704
O      -1.261491   -2.512095    1.269507
C      -2.492870   -3.232667    1.261342
C      -3.661689   -2.311713    1.123041
C      -2.881737   -2.732622   -0.106767
H       0.873217    1.988981    0.503598
H      -0.251519    1.946218   -0.860364
H      -0.870976    1.988692    0.794221
H       0.752676   -0.327807   -0.413987
H       0.120877   -0.296851    1.223881
H      -2.218410   -0.103696    0.298935
H      -1.579281   -0.305893   -1.324514
H       0.509541   -2.570212   -0.811533
H      -0.643275   -3.911234   -0.899933
H      -0.726004   -2.592593   -2.086411
H      -2.510672   -4.214963    1.719424
H      -4.638227   -2.779458    1.208107
H      -3.602567   -1.302601    1.519566
H      -3.332517   -3.248425   -0.944630
