22

C      -0.183386    1.380960   -0.087613
N      -0.220607   -0.070166   -0.210704
C       0.583203   -0.639801   -0.981713
O       1.573301   -0.109488   -1.797246
C       1.984111   -1.442064   -2.225268
C       0.872087   -2.081670   -1.360749
C       1.277753   -3.045344   -0.239047
C       0.087892   -3.328267    0.687684
C       1.858198   -4.341582   -0.820177
H       0.612804    1.859749   -0.669257
H      -1.146981    1.793211   -0.407566
H      -0.057680    1.647068    0.967556
H       1.895133   -1.550921   -3.308846
H       3.009469   -1.652265   -1.906767
H       0.066057   -2.521871   -1.958012
H       2.062360   -2.550949    0.351357
H       0.394612   -3.955818    1.530792
H      -0.335944   -2.398496    1.074655
H      -0.704853   -3.860865    0.148245
H       2.727455   -4.151151   -1.458980
H       2.175642   -5.017854   -0.020136
H       1.109123   -4.868979   -1.422713
