21

C      -0.085897    1.516547    0.109333
C       0.033240   -0.003854    0.139125
C      -1.350511   -0.699863    0.277936
C      -1.073252   -1.383500    1.656527
C       0.231361   -2.118545    1.282909
C       0.793139   -0.673061    1.282444
C       2.035115   -0.437770    0.407836
O       1.147458   -0.375460   -0.757053
C      -0.132874   -0.412527    2.499707
H       0.868833    2.009204    0.313959
H      -0.408964    1.818787   -0.892845
H      -0.826716    1.888998    0.822518
H      -2.172938    0.020195    0.279602
H      -1.556580   -1.451680   -0.488471
H      -1.907951   -1.890614    2.141730
H       0.653438   -2.707674    2.101602
H       0.257667   -2.681679    0.347390
H       2.572745    0.507028    0.550629
H       2.749013   -1.263084    0.334068
H      -0.452812    0.613458    2.693421
H       0.168882   -0.894466    3.432408
