23

C      -0.149351    1.709919   -0.098177
C      -0.055295    0.252631    0.366759
C      -1.322006   -0.519510    0.040219
O      -1.574156   -0.612721   -1.387824
C      -1.782629   -2.030191   -1.313939
C      -1.399888   -2.068713    0.182941
C      -0.154380   -2.871794    0.580095
C      -0.451979   -4.372811    0.646082
O       0.973444   -2.617308   -0.253932
H       0.775610    2.252530    0.118478
H      -0.326542    1.755950   -1.176570
H      -0.971757    2.237031    0.399016
H       0.798988   -0.245808   -0.096232
H       0.098941    0.214665    1.453937
H      -2.177817   -0.029423    0.531370
H      -2.820031   -2.311531   -1.537196
H      -1.127473   -2.575969   -2.008669
H      -2.221655   -2.385503    0.831400
H       0.166418   -2.533335    1.573067
H      -0.808602   -4.743854   -0.323235
H       0.455459   -4.923375    0.907461
H      -1.222876   -4.595277    1.390559
H       0.787169   -2.976109   -1.128091
