13

N      -0.013918    1.385218    0.157033
C       0.042154    0.001804    0.043085
N      -1.056138   -0.751822    0.015375
N      -0.650156   -2.059185   -0.011510
C       0.703326   -2.141449   -0.015122
C       1.174296   -0.848983    0.021929
O       2.522830   -0.829304    0.018088
N       2.950348   -2.165750   -0.022065
C       1.880823   -2.932704   -0.039422
H       0.689044    1.865094   -0.388695
H      -0.938684    1.741334   -0.047526
H      -1.347085   -2.780308   -0.013712
H       2.016106   -4.003685   -0.069957
