13

N       0.138822    1.332866    0.174124
C      -0.038394   -0.018142    0.061199
C      -1.190894   -0.716128    0.021685
C      -1.170911   -2.173706   -0.020267
O      -2.164311   -2.866403   -0.050813
N       0.125804   -2.764694   -0.030566
C       1.140878   -2.004869   -0.002250
O       2.396409   -2.447872   -0.016183
O       1.175329   -0.651400    0.044817
H       1.022633    1.688155   -0.158864
H      -0.659185    1.903337   -0.055856
H      -2.146119   -0.209281    0.027295
H       2.333952   -3.413114   -0.049546
