19

C       0.006817    1.569656    0.034470
C       0.028283    0.039819    0.015417
C       0.791081   -0.558649   -1.192816
C       1.308957   -1.950317   -0.723559
C       2.485650   -2.425883   -1.437648
C       3.458283   -2.815424   -2.026695
C       1.506835   -1.751928    0.780097
O       2.164371   -0.529847    1.121692
C       0.730210   -0.587124    1.209452
H       1.025872    1.963081    0.104112
H      -0.451290    1.969556   -0.875745
H      -0.562734    1.949376    0.889256
H      -1.005356   -0.335221    0.017204
H       0.171414   -0.635790   -2.088571
H       1.649571    0.071628   -1.433499
H       0.505564   -2.692862   -0.837109
H       4.320474   -3.157296   -2.543466
H       1.729102   -2.603595    1.417394
H       0.322020   -0.487805    2.212868
