17

N      -0.026209    1.212332   -0.368027
C       0.010599    0.008262    0.006143
O       1.144878   -0.636083    0.438578
C       0.853215   -1.930580    1.007331
C      -0.595708   -2.254728    0.641989
C      -1.145964   -0.957136    0.021350
C      -1.378787   -1.782761   -1.258489
C      -0.149993   -2.439401   -1.733311
N      -0.879848   -3.065504   -0.608574
H       0.896738    1.643235   -0.288552
H       1.568967   -2.652517    0.603559
H       0.991197   -1.867681    2.092360
H      -1.155080   -2.686054    1.471281
H      -2.047407   -0.526826    0.451833
H      -2.295309   -1.755685   -1.837251
H      -0.229404   -3.030825   -2.640030
H       0.824525   -1.985189   -1.579988
