22

C       0.118484    1.664918    0.035351
C       0.002130    0.134215   -0.006853
N      -1.400854   -0.266545   -0.028245
C      -2.108064   -0.566834    1.088097
O      -1.664203   -0.577599    2.219075
C       0.719025   -0.523959   -1.213994
C       2.164655   -0.031983   -1.358595
C       0.692822   -2.053922   -1.093196
O      -0.053401   -0.110991   -2.356078
H       1.150302    1.986739    0.198918
H      -0.240333    2.107278   -0.898343
H      -0.485873    2.047254    0.861489
H       0.421263   -0.278699    0.914719
H      -1.860005   -0.245348   -0.926061
H      -3.162546   -0.816043    0.852370
H       2.738023   -0.205325   -0.442045
H       2.665730   -0.573929   -2.168646
H       2.195517    1.032923   -1.595718
H      -0.328821   -2.420696   -0.977348
H       1.127530   -2.512302   -1.989275
H       1.279576   -2.390354   -0.232696
H       0.294518   -0.562456   -3.131651
