19

C      -0.186259    1.420757    0.039417
N       0.004253   -0.018055   -0.047629
C      -0.027783   -0.809169    1.165657
C      -1.435397   -0.975580    1.759083
C      -1.398094   -1.815496    3.050769
C      -2.720128   -1.976247    3.650786
N      -3.772876   -2.092190    4.112509
C       0.250973   -0.594718   -1.262168
O       0.300433   -0.011841   -2.323082
H       0.526221    1.858850    0.748552
H      -0.015987    1.835502   -0.954073
H      -1.201200    1.677958    0.362313
H       0.389838   -1.796335    0.936077
H       0.635291   -0.350100    1.913090
H      -1.872128    0.002736    1.981377
H      -2.087652   -1.456626    1.023421
H      -0.985388   -2.811102    2.848058
H      -0.736937   -1.347464    3.790016
H       0.409180   -1.687650   -1.168850
