18

C       0.087750    1.524424   -0.056419
C       0.012958    0.031440   -0.073566
C       0.104853   -0.784108   -1.127799
C       0.015190   -2.223727   -0.707524
N      -0.265090   -2.178868    0.769606
C      -1.658718   -2.667450    0.584276
C      -1.360979   -2.899414   -0.905294
O      -1.937130   -3.401634   -1.820871
C      -0.138188   -0.777598    1.201150
H       0.907331    1.869917    0.586413
H       0.244489    1.933780   -1.057460
H      -0.832297    1.962339    0.350872
H       0.246870   -0.480371   -2.157734
H       0.875551   -2.832400   -1.014497
H      -1.905218   -3.566042    1.160216
H      -2.441291   -1.914183    0.756715
H       0.732850   -0.638543    1.859117
H      -1.017212   -0.479170    1.790197
