22

C      -0.717111    1.303547   -0.031017
C       0.117425    0.024947    0.000090
C       1.230536   -0.026727   -1.068639
O       2.294911   -0.805533   -0.528755
C       1.903688   -1.322820    0.747152
C       3.157037   -1.611030    1.556703
C       0.901571   -0.288040    1.300582
C       1.569898    0.934073    1.940697
H      -0.097014    2.195245    0.103500
H      -1.234649    1.404515   -0.991208
H      -1.480279    1.301381    0.754400
H      -0.556095   -0.823781   -0.174727
H       0.875236   -0.472058   -2.007759
H       1.612678    0.977345   -1.301601
H       1.359388   -2.272937    0.599947
H       3.751332   -0.705798    1.703646
H       2.895915   -2.024773    2.536237
H       3.778793   -2.342058    1.032301
H       0.241586   -0.759639    2.037662
H       2.271250    1.418271    1.253358
H       0.826550    1.677908    2.241422
H       2.127908    0.651768    2.838165
