18

C      -0.094330    1.726457    0.119729
C       0.002289    0.203929    0.066580
C       0.683040   -0.328457   -1.210659
C       2.187017   -0.040847   -1.159976
N       2.796136   -0.404692    0.113665
C       2.041425   -0.501917    1.120709
O       0.703496   -0.287187    1.229472
C      -1.382593   -0.438477    0.153866
O      -2.372048    0.026352   -0.344599
H       0.877010    2.193006   -0.059694
H      -0.806004    2.068403   -0.635137
H      -0.453677    2.044201    1.101717
H       0.527265   -1.412527   -1.271907
H       0.208280    0.121225   -2.087230
H       2.700297   -0.594005   -1.953600
H       2.387678    1.020720   -1.354553
H       2.437363   -0.798836    2.090132
H      -1.384176   -1.408182    0.698489
