24

C      -0.078980    1.489632   -0.037117
C      -0.193448   -0.018234   -0.184358
O       0.905307   -0.477443   -0.948971
C       0.927316   -1.869011   -1.126951
C       0.017152   -2.423496   -2.260731
N       1.186932   -2.442727   -3.157952
C       1.350846   -3.568958   -4.052222
C       2.600670   -3.428789   -4.918597
C       2.112860   -2.294670   -2.015845
H       0.856595    1.755741    0.462938
H      -0.090998    1.971780   -1.018619
H      -0.913287    1.880178    0.553216
H      -0.193464   -0.506915    0.805227
H      -1.144191   -0.284915   -0.673750
H       0.836197   -2.380692   -0.159328
H      -0.376430   -3.425643   -2.022058
H      -0.808910   -1.786337   -2.596550
H       1.391952   -4.528898   -3.495053
H       0.460837   -3.618786   -4.692205
H       2.698426   -4.280970   -5.598094
H       2.556789   -2.510298   -5.510891
H       3.505735   -3.389584   -4.302952
H       2.898858   -1.544282   -2.144615
H       2.563756   -3.244713   -1.684534
