11

O       0.037425   -0.005613   -0.055979
C      -0.007399    1.197571    0.002457
C      -1.223011    2.064816    0.083649
C      -0.879641    3.357165    0.008223
C       0.615700    3.507668   -0.055662
O       1.266821    2.991782    1.121865
C       1.183282    2.157433   -0.047187
H      -2.217303    1.654134    0.200971
H      -1.556476    4.202406    0.036010
H       1.092760    4.360631   -0.526257
H       2.120315    1.861655   -0.507132
