20

C       0.062298    1.501509   -0.080799
C      -0.063654    0.013924    0.095829
C      -1.323003   -0.718724   -0.359451
C      -1.164420   -2.149111    0.209248
C      -0.285619   -1.974576    1.449891
C      -0.770523   -2.286290    2.819721
N       0.284056   -3.103951    2.188441
C       0.559096   -0.766428    1.176404
O       1.125393   -0.760991   -0.147082
H       1.010961    1.858917    0.327014
H       0.027272    1.767912   -1.143146
H      -0.757267    2.025441    0.422475
H      -2.199067   -0.218092    0.069935
H      -1.437791   -0.707183   -1.448072
H      -2.121395   -2.627386    0.434116
H      -0.635227   -2.774950   -0.515420
H      -0.440071   -1.698591    3.672812
H      -1.771234   -2.700050    2.918153
H      -0.109951   -3.976514    1.843244
H       1.177308   -0.332646    1.958129
