17

N      -0.085599    0.861464    1.138882
C      -0.015208   -0.005509    0.195904
N       1.215935   -0.419370   -0.339752
C       1.637943   -1.522944   -1.069032
O       2.812769   -1.619127   -1.359129
C       0.621998   -2.583307   -1.435907
C      -0.599965   -2.074678   -2.213031
C      -1.564711   -1.274437   -1.387505
C      -1.298205   -0.462547   -0.360901
H       0.841669    1.148414    1.459313
H       2.007720    0.148611   -0.063989
H       1.171755   -3.319441   -2.024628
H       0.281293   -3.073801   -0.515711
H      -0.274316   -1.493320   -3.087568
H      -1.129726   -2.941502   -2.622371
H      -2.612600   -1.388858   -1.655187
H      -2.121522    0.016445    0.157385
