17

O       0.163387    1.291158   -0.471065
C      -0.026029    0.109052    0.284201
C      -1.347135   -0.530847   -0.004433
C      -2.192836   -0.458431   -1.067552
C      -3.313322   -1.305081   -0.757282
C      -4.528373   -1.573563   -1.596169
O      -5.237178   -2.731665   -1.185010
C      -3.051299   -1.822701    0.472644
O      -1.858870   -1.358845    0.946618
H      -0.571499    1.881034   -0.270439
H       0.801741   -0.553837    0.003346
H       0.060346    0.280553    1.368709
H      -2.030787    0.113471   -1.967907
H      -5.246219   -0.748743   -1.510696
H      -4.242779   -1.628526   -2.659029
H      -4.627368   -3.474822   -1.246785
H      -3.590946   -2.492014    1.120395
