18

C       0.102548    1.517254   -0.047802
C      -0.112482    0.010882   -0.142811
N       0.694139   -0.554322   -1.219119
C       0.799052   -1.911270   -1.328400
N       0.498516   -2.808644   -0.435199
C       0.870455   -4.005795   -1.043237
C       1.367350   -3.785410   -2.277307
N       1.859005   -4.609845   -3.279803
O       1.322857   -2.388112   -2.477669
H       1.154386    1.751618    0.139494
H      -0.199018    2.021977   -0.973258
H      -0.497223    1.935192    0.765375
H       0.192351   -0.485162    0.782101
H      -1.180535   -0.216498   -0.280797
H       0.655140   -0.070670   -2.104569
H       0.749373   -4.956500   -0.548506
H       1.308453   -4.571222   -4.131901
H       2.825638   -4.410540   -3.517326
