17

C      -0.255388    1.530740    0.063067
C       0.048112    0.049553   -0.007570
C      -0.677647   -0.884901    0.945384
C       0.788696   -0.594777    1.126584
O       1.723246   -1.621186    0.875028
C       1.806935   -2.078261   -0.399828
N       1.239823   -1.664142   -1.448387
C       0.386243   -0.484847   -1.394902
H       0.588145    2.126957   -0.303011
H      -1.131209    1.779269   -0.548067
H      -0.470425    1.846562    1.089086
H      -1.376381   -0.462633    1.659739
H      -0.938918   -1.874751    0.584479
H       1.121167   -0.000722    1.970340
H       2.481705   -2.931350   -0.432682
H      -0.531026   -0.703284   -1.958515
H       0.898774    0.306791   -1.958249
