21

O       0.355288    0.846270   -0.851484
C       0.035921   -0.234486   -0.019052
C       0.008822   -0.032919    1.522272
C      -1.303926   -0.860855    1.587641
C      -1.451786   -0.744991    0.039196
C      -2.472250    0.251003   -0.448478
O      -2.220799    1.525994    0.121447
C      -2.984757    0.179769   -1.859998
C      -3.895807   -0.169060   -0.690981
H      -0.286705    1.539518   -0.647698
H       0.710199   -1.047658   -0.305029
H       0.869996   -0.398640    2.086896
H      -0.160759    1.016708    1.773619
H      -1.146912   -1.892851    1.910561
H      -2.116753   -0.431608    2.176739
H      -1.631087   -1.689105   -0.482481
H      -2.918166    2.133153   -0.144188
H      -3.168547    1.117025   -2.376481
H      -2.632319   -0.617279   -2.505195
H      -4.170319   -1.206163   -0.531087
H      -4.682120    0.537010   -0.439572
