15

C      -0.009005    1.456167   -0.012370
N      -0.008008   -0.006419   -0.012778
C      -1.213367   -0.661710   -0.128851
O      -2.299279   -0.135975   -0.233023
N      -1.081406   -2.055725   -0.116704
C       0.127560   -2.674856   -0.000277
N       1.248643   -2.067000    0.107635
C       1.238579   -0.665685    0.106667
N       2.286681    0.051164    0.207120
H       0.600372    1.823853   -0.840527
H      -1.040015    1.788119   -0.111159
H       0.431842    1.823294    0.916747
H      -1.943048   -2.572692   -0.199370
H       0.098103   -3.762740   -0.003129
H       3.091125   -0.569094    0.284280
