18

C       0.006557    1.539808    0.076283
N       0.111180    0.090251   -0.014353
C       0.772639   -0.522786   -1.160096
C       2.294574   -0.646868   -0.872104
C       1.295083   -1.658810   -0.347758
C       1.074061   -0.646056    0.838998
C       2.512534   -0.060955    0.530590
C       3.553525   -0.728575    1.287185
C       4.405069   -1.279401    1.934267
H       0.938037    2.087113   -0.136520
H      -0.751548    1.882614   -0.635749
H      -0.332715    1.811437    1.081354
H       0.367614   -0.505322   -2.164737
H       3.033534   -0.778737   -1.651731
H       1.204135   -2.730119   -0.437629
H       0.783888   -0.859176    1.866146
H       2.624717    1.025434    0.619922
H       5.163868   -1.760696    2.499612
