21

O      -0.043941    1.463561    0.359893
C      -0.038915    0.101724    0.034189
C      -0.600608   -0.897309    1.016226
C      -1.369800   -0.531307   -0.241880
C      -2.647192    0.277010   -0.154466
C      -3.860079   -0.596649    0.115785
C      -5.262441    0.023874   -0.077373
C      -5.458507   -1.095873   -1.117975
O      -4.101090   -1.552217   -0.952029
H       0.623948    1.607585    1.037952
H       0.803655   -0.211531   -0.582507
H      -0.144215   -1.878140    1.094057
H      -0.971341   -0.492313    1.953052
H      -1.382859   -1.282221   -1.025902
H      -2.561103    1.031868    0.634775
H      -2.807293    0.818304   -1.095941
H      -3.737789   -1.123616    1.073087
H      -5.924865   -0.000486    0.789046
H      -5.247069    1.034774   -0.490668
H      -6.186250   -1.868878   -0.838060
H      -5.662725   -0.778486   -2.147544
