20

C      -0.095974    1.315679    0.091445
N       0.127029   -0.111699   -0.042979
C       0.665054   -0.673084   -1.149254
O       1.007564   -0.042216   -2.140890
C       0.811234   -2.211532   -1.141267
O       1.544213   -2.583263   -2.277386
C       1.465000   -2.741948    0.118520
C       0.621001   -3.168041    1.303647
C       1.324278   -4.199026    0.457754
H       0.158859    1.779883   -0.861490
H      -1.143963    1.528781    0.326981
H       0.534762    1.747283    0.876701
H      -0.053214   -0.713979    0.743816
H      -0.213412   -2.626360   -1.193327
H       1.615352   -1.763575   -2.797502
H       2.425204   -2.286055    0.343259
H       0.997055   -2.971088    2.301444
H      -0.460075   -3.106300    1.216426
H       0.719026   -4.811701   -0.201365
H       2.182457   -4.710068    0.878350
