17

C       0.227161    1.504755   -0.134112
C       0.052723   -0.013907   -0.019569
C      -1.427655   -0.412709    0.040902
C       0.732316   -0.750617   -1.174412
O       2.147395   -0.518011   -1.157387
C       2.738264   -0.049414   -2.270802
O       3.912411    0.155008   -2.344776
H       1.283734    1.783958   -0.159239
H      -0.249345    1.887844   -1.045057
H      -0.234166    2.012681    0.718213
H       0.541775   -0.350003    0.903936
H      -1.957500   -0.106109   -0.868909
H      -1.551921   -1.495005    0.152876
H      -1.923215    0.069726    0.888364
H       0.581058   -1.831878   -1.084910
H       0.313288   -0.427211   -2.138032
H       2.019995    0.122945   -3.096995
