16

O      -0.134889   -0.044693    0.080631
C      -0.065412    1.170102    0.091440
C       1.165362    1.925811   -0.012466
C       1.116321    3.279793    0.017103
N       2.201125    4.088606   -0.073667
C       3.550384    3.562790    0.058475
C       3.678405    2.090563   -0.360200
O       4.741145    1.683222   -0.759442
C       2.468892    1.189944   -0.181193
H      -0.984331    1.795425    0.188689
H       0.161176    3.791670    0.096309
H       2.075301    5.075028    0.079859
H       4.249031    4.143772   -0.547727
H       3.896633    3.617291    1.104474
H       2.665849    0.539070    0.683434
H       2.431641    0.503963   -1.034631
