19

C      -0.144598    1.556950    0.055892
C       0.024851    0.038433   -0.024212
C       0.938013   -0.494713   -1.125277
C       1.375261   -1.954430   -0.773334
C       2.735869   -1.701098   -1.462452
C       2.435181   -0.411237   -0.665273
C       1.932350   -1.290928    0.540407
C       0.793934   -0.540577    1.182869
O       0.545974   -0.392843    2.352033
H       0.825099    2.066235    0.057800
H      -0.721704    1.936486   -0.792997
H      -0.666412    1.828139    0.977922
H      -0.964885   -0.435886   -0.066070
H       0.704541   -0.261515   -2.165745
H       0.752744   -2.850166   -0.815021
H       3.581174   -2.304820   -1.122354
H       2.724217   -1.616538   -2.553557
H       3.051119    0.485534   -0.581446
H       2.641850   -1.819400    1.175248
