18

C      -0.046539    1.463923   -0.132038
C      -0.129949   -0.019445   -0.049654
C      -1.178332   -0.895452   -0.029995
C      -2.645681   -0.589582   -0.107781
O      -2.973440    0.368379   -1.110847
C      -0.542916   -2.173876    0.071273
C      -1.177053   -3.527102    0.137857
N       0.763587   -2.063724    0.107252
O       1.028610   -0.695720    0.026248
H       0.710067    1.768956   -0.861329
H      -1.016053    1.865022   -0.429751
H       0.236718    1.895882    0.834526
H      -3.205873   -1.525160   -0.255133
H      -3.010499   -0.150828    0.827796
H      -2.611959    0.046125   -1.943623
H      -1.818682   -3.707673   -0.731354
H      -0.403875   -4.297119    0.164891
H      -1.801386   -3.630022    1.031626
