19

C      -0.167695    1.496152    0.053117
C      -0.078050   -0.029169    0.018386
C      -1.394643   -0.682669   -0.400446
C       1.141582   -0.553596   -0.760793
O       1.539583   -0.546737   -1.881400
O       1.738963   -1.120829    0.339773
C       0.652234   -0.686061    1.198239
C       0.918807   -0.234258    2.588430
C       0.180403   -1.543330    2.316401
H       0.778713    1.948366    0.362432
H      -0.422325    1.882132   -0.938408
H      -0.945930    1.819371    0.752953
H      -1.679343   -0.349737   -1.402964
H      -1.317036   -1.773398   -0.412526
H      -2.198247   -0.404720    0.290106
H       1.939897   -0.302702    2.947020
H       0.354913    0.608119    2.975574
H      -0.884640   -1.589417    2.518927
H       0.719175   -2.466855    2.497293
