23

C      -0.240712    1.523179    0.216036
C       0.036025    0.028870   -0.011340
C       0.828774   -0.204647   -1.325585
C       2.337052   -0.077785   -1.300416
C       3.162207   -0.463984   -0.325174
C       2.753954   -1.020867    1.013391
C       1.475059   -1.913193    0.982601
C       0.627455   -0.636017    1.252892
C       1.920182    0.012485    1.833800
H       0.686100    2.105009    0.237916
H      -0.865108    1.928982   -0.586718
H      -0.763542    1.692392    1.163722
H      -0.937973   -0.453514   -0.172892
H       0.581793   -1.203846   -1.711442
H       0.433096    0.486940   -2.078790
H       2.780620    0.325883   -2.208382
H       4.231010   -0.331094   -0.478605
H       3.621382   -1.448483    1.522125
H       1.278359   -2.489357    0.075680
H       1.454888   -2.593741    1.838580
H      -0.182715   -0.752834    1.979775
H       1.997096   -0.169236    2.910208
H       2.113790    1.068617    1.638223
