16

N       0.041075    1.287348    0.188228
C      -0.045370   -0.075201    0.058833
N      -1.136599   -0.783773   -0.078506
C      -0.641935   -2.072081   -0.008141
C       0.686628   -2.088034    0.190012
C       1.282713   -3.424867   -0.077764
C      -0.046157   -4.259767    0.033884
N      -1.169750   -3.331594   -0.310217
O       1.118300   -0.764706    0.181771
H       0.908072    1.688080   -0.139221
H      -0.780417    1.764452   -0.152664
H       1.719493   -3.505775   -1.084663
H       2.031368   -3.783927    0.635746
H      -0.050636   -5.125208   -0.632519
H      -0.145549   -4.616002    1.067708
H      -2.034538   -3.565976    0.163776
