16

C      -0.076993    1.382291    0.120747
O       0.002208   -0.031343    0.001028
C       0.621083   -0.535369   -1.083020
C       1.186091    0.180587   -2.089215
C       1.824803   -0.476321   -3.206216
N       2.370714    0.135490   -4.177019
O       1.824192   -1.883264   -3.185265
C       1.254674   -2.562132   -2.171616
C       0.655932   -1.977952   -1.124236
H       0.922139    1.831249    0.163802
H      -0.632010    1.818833   -0.717745
H      -0.607460    1.577524    1.053199
H       1.196186    1.259535   -2.122096
H       2.756791   -0.527695   -4.848328
H       1.341697   -3.633070   -2.309991
H       0.210193   -2.559601   -0.330223
