17

O      -0.136220    0.539833   -1.336142
C      -0.027145    1.312200   -0.419550
C      -1.194779    1.670655    0.492420
C      -0.840967    2.578574    1.681993
C       0.111148    3.670335    1.263116
C       1.104325    3.423284    0.412880
C       1.326039    2.024701   -0.137988
C       2.086964    1.194398    0.797168
C       2.678906    0.502768    1.582895
H      -1.922120    2.178472   -0.153306
H      -1.671116    0.738210    0.810547
H      -1.757141    2.999816    2.105790
H      -0.378898    1.982563    2.480612
H      -0.021610    4.665025    1.678168
H       1.805959    4.193483    0.110178
H       1.855111    2.054899   -1.096030
H       3.218921   -0.105628    2.265496
