18

C      -0.241060    1.557905    0.046810
C      -0.022539    0.051457   -0.017027
C       1.143983   -0.456651   -0.962810
N       1.747732   -1.004278    0.270033
N       2.734276   -1.688917    0.860227
N       2.386201   -1.712208    2.130156
C       1.195525   -1.060534    2.350451
C       0.604383   -0.962749    3.717738
C       0.787334   -0.600205    1.112590
H       0.699396    2.085214    0.234289
H      -0.664877    1.930000   -0.891517
H      -0.935971    1.812372    0.852825
H      -0.964208   -0.466169   -0.221872
H       0.875978   -1.221238   -1.694540
H       1.744459    0.327332   -1.429531
H       0.527791    0.076139    4.056751
H      -0.400898   -1.395666    3.759099
H       1.239576   -1.504432    4.421691
