21

C       0.012885    1.527382    0.067099
C      -0.060369    0.036234   -0.002017
C       0.002786   -0.756648   -1.081078
C      -0.029812   -2.185658   -0.664023
C       0.902443   -2.656900    0.489198
C       1.419700   -1.483810    1.308022
C      -0.025838   -0.848932    1.229564
C      -0.533790   -2.259153    0.753677
C      -1.716973   -3.026211    1.258502
H       0.910213    1.863355    0.603712
H       0.032609    1.975259   -0.930546
H      -0.845344    1.944244    0.610236
H       0.106324   -0.427936   -2.108694
H      -0.311605   -2.968604   -1.360254
H       1.338438   -3.649080    0.447874
H       1.647309   -1.803964    2.328293
H       2.248426   -0.882308    0.917944
H      -0.419297   -0.421440    2.152883
H      -2.656021   -2.504447    1.037910
H      -1.767413   -4.014425    0.788665
H      -1.667899   -3.177535    2.343529
