18

C       0.121255    1.482169   -0.153961
C      -0.070543   -0.027081    0.035114
C      -1.555416   -0.393546    0.140999
O       0.502594   -0.716616   -1.092151
C       1.549199   -1.590208   -0.698535
C       1.649846   -1.446323    0.788357
C       0.740489   -0.567031    1.212396
C       0.512924   -0.153557    2.549878
N       0.294984    0.211072    3.627870
H       1.182614    1.724868   -0.251467
H      -0.394184    1.807604   -1.061799
H      -0.287563    2.036947    0.696003
H      -2.078421   -0.075595   -0.765163
H      -1.676991   -1.474309    0.250830
H      -2.018576    0.099547    1.001056
H       1.318458   -2.625575   -0.995924
H       2.489724   -1.315125   -1.201930
H       2.359545   -1.983966    1.403275
