23

C      -0.636756    1.117879   -1.043455
C       0.316309   -0.080758   -1.157056
C       1.430986    0.190837   -2.170594
O       0.837163    0.424632   -3.440485
C       0.909449   -0.438413    0.192808
C       0.132078   -1.248891    1.216882
C       1.385157   -1.809896    0.583527
C       1.312856   -3.005679   -0.339336
O       2.558202   -1.775796    1.363266
H      -0.110850    1.994812   -0.646703
H      -1.041013    1.380547   -2.023302
H      -1.467374    0.894299   -0.367232
H      -0.257877   -0.934712   -1.538748
H       2.019311    1.063122   -1.839448
H       2.115141   -0.670651   -2.206393
H       1.534698    0.651052   -4.061875
H       1.520019    0.350232    0.628146
H       0.188587   -0.941948    2.255344
H      -0.824693   -1.663765    0.912974
H       1.288331   -3.934916    0.244125
H       0.416833   -2.990556   -0.964611
H       2.191777   -3.044248   -0.990866
H       2.526746   -2.523676    1.970834
