23

C      -0.622234    1.187158   -0.705584
O      -0.805083   -0.206938   -0.653420
C      -0.936315   -0.696989    0.661546
C      -1.109584   -2.217723    0.627283
O      -1.063169   -2.721939    1.961231
C      -2.368170   -2.675458   -0.094585
C      -2.467868   -2.561119   -1.643331
C      -3.160764   -3.949865   -1.664984
C      -2.607930   -4.204941   -0.236184
H      -0.520890    1.466366   -1.757173
H      -1.479640    1.728520   -0.274619
H       0.285195    1.499479   -0.164885
H      -0.046972   -0.454384    1.265152
H      -1.807650   -0.235526    1.164079
H      -0.233056   -2.649843    0.128705
H      -1.894175   -2.489208    2.390224
H      -3.240731   -2.196648    0.373842
H      -3.007562   -1.705618   -2.052743
H      -1.476541   -2.590004   -2.103773
H      -4.251328   -3.860991   -1.668554
H      -2.870981   -4.649762   -2.452408
H      -1.658072   -4.748296   -0.256779
H      -3.264115   -4.689917    0.490251
