20

C      -0.010807    1.236669   -0.097898
O       0.104988   -0.168222   -0.067904
C       0.486831   -0.677136    1.196092
C       0.706075   -2.183462    1.008847
O       1.611229   -2.404815   -0.060219
C       1.269934   -2.812978    2.261958
C       2.712746   -2.598728    2.623104
N       0.434531   -3.491437    2.951138
O       1.015572   -3.990874    4.125074
H       0.940005    1.727650    0.160222
H      -0.293330    1.519488   -1.114614
H      -0.784020    1.592767    0.599084
H       1.416663   -0.192078    1.535354
H      -0.293822   -0.496418    1.950343
H      -0.269300   -2.645793    0.804557
H       1.366548   -1.761847   -0.738256
H       2.801651   -1.942329    3.496346
H       3.173119   -3.550755    2.900764
H       3.252731   -2.165151    1.781707
H       0.295471   -4.506447    4.503358
