20

C      -0.497993    1.442305   -0.064724
C       0.039982    0.012748    0.005287
C       1.129270   -0.299108   -1.050747
O       2.078457   -1.171246   -0.443251
C       1.570944   -1.599791    0.816945
C       0.715078   -0.434869    1.326105
C       1.579667    0.633749    1.992692
O       2.138130    0.053680    3.165314
H       0.299301    2.183242    0.053280
H      -0.974195    1.627077   -1.033635
H      -1.248856    1.626427    0.710559
H      -0.799876   -0.672205   -0.162778
H       0.697873   -0.769096   -1.945619
H       1.654339    0.609956   -1.374075
H       0.961325   -2.511320    0.705665
H       2.417802   -1.823664    1.469202
H      -0.024271   -0.773543    2.059139
H       2.369016    0.962318    1.299004
H       0.968940    1.512806    2.246162
H       2.749463    0.686860    3.552035
