21

C      -0.126900    1.547300   -0.043707
C       0.034033    0.028202   -0.009658
C       0.925620   -0.562736   -1.101263
C       2.343729   -0.650426   -0.533692
C       2.288707   -0.130271    0.897800
C       0.828979   -0.562999    1.192656
C       0.870700   -2.064577    0.817209
C       1.446067   -1.877933   -0.585589
O       1.642464   -2.936272   -1.462629
H       0.836996    2.063113   -0.077563
H      -0.691112    1.855593   -0.930454
H      -0.672542    1.905873    0.836271
H      -0.963307   -0.429743   -0.040542
H       0.754190   -0.412946   -2.159347
H       3.209076   -0.564974   -1.177841
H       3.004890   -0.630227    1.559665
H       2.448329    0.948482    0.982803
H       0.444274   -0.322808    2.184343
H       1.525879   -2.649281    1.474268
H      -0.119873   -2.531097    0.804434
H       2.390559   -3.453297   -1.144006
