23

C      -0.199934    1.322658    0.115401
O       0.030823   -0.055241   -0.035246
C       0.620689   -0.643585    1.105298
C       0.860570   -2.129474    0.834320
C       1.821054   -2.341395   -0.343864
C       1.373028   -2.809174    2.091398
C       0.414331   -3.261997    3.178888
C       1.136834   -4.273189    2.323475
O       0.437019   -4.964776    1.328479
H       0.735410    1.879162    0.289239
H      -0.657409    1.683576   -0.809369
H      -0.881931    1.535336    0.954762
H       1.576422   -0.140416    1.341866
H      -0.036204   -0.517388    1.982620
H      -0.105660   -2.574156    0.572958
H       1.907235   -3.405421   -0.579107
H       1.463248   -1.810758   -1.229152
H       2.822899   -1.962716   -0.105213
H       2.338266   -2.440616    2.433615
H       0.695765   -3.153386    4.220850
H      -0.644563   -3.131495    2.977346
H       1.941981   -4.843253    2.787265
H      -0.150956   -5.593408    1.759405
