21

O       0.135025    1.434208    0.011468
C       0.039648    0.009713    0.071152
C       0.607334   -0.441137    1.432715
C      -0.591844   -0.540859    2.369797
C      -1.551407    0.622749    2.414051
C      -1.846332   -0.562042    1.520447
C      -1.410332   -0.485201    0.080462
C      -2.348142   -0.147946   -1.052585
C      -1.844421   -1.561516   -0.882704
H      -0.473926    1.734446   -0.671721
H       0.600940   -0.425773   -0.768377
H       1.071739   -1.427872    1.326919
H       1.378206    0.258225    1.769529
H      -0.501663   -1.169793    3.248576
H      -2.161813    0.720873    3.305873
H      -1.250128    1.557442    1.957296
H      -2.688267   -1.201692    1.764191
H      -3.383381    0.065265   -0.808724
H      -1.971343    0.420929   -1.898893
H      -1.119510   -1.931320   -1.600874
H      -2.539553   -2.314210   -0.525058
