16

C      -0.005841    1.491011   -0.026500
C       0.062318   -0.004419   -0.095330
C       0.627442   -0.946813   -1.184905
C       0.088293   -1.938341   -0.134297
C       0.465541   -0.999195    1.050129
O      -0.862882   -1.024473    1.663333
C      -1.116139   -1.008349    0.231848
C      -2.462171   -1.015316   -0.272388
N      -3.529547   -1.007306   -0.717036
H       0.997544    1.928200   -0.059277
H      -0.578755    1.898491   -0.865536
H      -0.488251    1.803100    0.905131
H       0.119071   -0.934810   -2.152339
H       1.711844   -0.929912   -1.321384
H       0.070400   -3.026653   -0.126992
H       1.338152   -1.004758    1.699823
