14

O      -0.931816    1.282303    0.274455
C       0.186871    0.878728    0.028902
C       1.387961    1.738398    0.016694
C       1.242991    3.064557    0.296214
N       2.300933    3.911074    0.302865
C       3.571492    3.455725    0.024665
C       3.797543    2.156309   -0.261755
C       2.711044    1.167827   -0.291865
O       2.892227   -0.016922   -0.549091
H       0.389955   -0.181306   -0.207540
H       0.267415    3.480602    0.522782
H       2.158202    4.885273    0.513634
H       4.350700    4.207609    0.054573
H       4.800468    1.809934   -0.478790
