15

O      -0.147022    0.019410    0.187259
C       0.022698    1.149609   -0.197995
C       1.294806    1.899535   -0.038675
C       1.249643    3.371226    0.287166
N       1.617824    2.954918   -1.052452
C       3.079184    2.846188   -1.290550
C       3.578551    1.760111   -0.361982
C       2.569539    1.215486    0.315707
H      -0.782343    1.731432   -0.698731
H       0.294100    3.886382    0.352917
H       2.017942    3.721602    0.973291
H       3.247585    2.590920   -2.344582
H       3.557537    3.818188   -1.117283
H       4.624360    1.489528   -0.279200
H       2.614489    0.396696    1.020029
