13

C      -0.063404    1.516282   -0.000067
C       1.437241    1.878021   -0.028892
O       2.184153    1.445469    1.105973
C       2.283747    0.655388   -0.091958
C       1.300528   -0.457204   -0.073611
C       0.025109    0.018851    0.007992
N      -0.791818   -1.068146    0.100954
N      -0.168195   -2.138506    0.056747
O       1.346352   -1.755251   -0.062599
H      -0.546492    1.935006    0.888594
H      -0.575291    1.917445   -0.881537
H       1.755936    2.822798   -0.459708
H       3.261002    0.591375   -0.555541
