16

O      -0.151279    1.362796    0.151871
N       0.042240   -0.022530    0.037159
C      -1.061529   -0.624343   -0.073824
C      -2.527277   -0.258487   -0.154321
N      -2.786756   -1.660572   -0.582864
C      -3.887220   -2.345507    0.063007
C      -4.014464   -3.725104   -0.420632
N      -4.102742   -4.818017   -0.783094
C      -1.398911   -2.087586   -0.239107
H       0.752135    1.693086    0.207080
H      -2.952153    0.004653    0.827848
H      -2.817544    0.504686   -0.882719
H      -3.797543   -2.380560    1.166834
H      -4.818137   -1.812956   -0.164010
H      -0.889009   -2.646070   -1.028789
H      -1.327434   -2.653998    0.702908
