17

O       0.444528    1.347644   -0.187327
C       0.156000    0.020119   -0.055894
C      -0.262527   -0.781677   -1.091309
N      -0.442559   -2.049337   -0.570500
C      -0.156957   -2.061334    0.770979
C       0.226517   -0.778748    1.118072
C      -0.225488   -3.264097    1.618017
C      -1.004063   -4.473345    1.237796
N       0.465210   -4.526335    1.241910
H       0.723360    1.683214    0.669073
H      -0.440650   -0.558982   -2.129134
H      -0.809647   -2.823703   -1.093850
H       0.534076   -0.460559    2.103613
H      -0.131332   -3.037665    2.676279
H      -1.488699   -5.069645    2.006195
H      -1.535799   -4.469399    0.288454
H       0.819315   -4.435226    0.291965
