12

C      -0.005660    1.456985   -0.026947
C      -0.078405   -0.022515    0.040069
N      -1.085225   -0.805358   -0.217566
C      -0.539587   -2.026649    0.021073
N       0.707772   -2.051034    0.400087
O       1.026303   -0.701181    0.415282
N      -1.298524   -3.274601   -0.133508
O      -2.456991   -3.159699   -0.490520
O      -0.700700   -4.308587    0.109164
H       0.764970    1.770137   -0.737435
H      -0.972318    1.847789   -0.342797
H       0.254190    1.871739    0.951416
