11

O      -0.016610   -0.012158    0.114340
C      -0.022625    1.168170   -0.032548
O       1.088902    1.917381    0.264642
C       1.024935    3.267693    0.129471
C       2.074492    4.102886   -0.064258
O       1.563142    5.374599   -0.090903
C       0.239045    5.218047    0.080789
N      -0.147327    3.989243    0.223354
H      -0.858481    1.779071   -0.399166
H       3.135465    3.985689   -0.183394
H      -0.365607    6.110705    0.090210
