22

C      -0.023923    1.651388    0.081877
C       0.008030    0.125588   -0.036313
C      -1.385976   -0.503366    0.056166
C      -1.365660   -2.036470   -0.022835
O      -0.622895   -2.503459    1.070481
C      -0.366802   -3.893541    1.060675
C      -2.812650   -2.580723   -0.005641
N      -3.427672   -2.578078   -1.225927
O      -3.360037   -2.966416    1.006176
H       0.982668    2.075739    0.015207
H      -0.628134    2.102274   -0.713816
H      -0.454153    1.964574    1.039462
H       0.471223   -0.160577   -0.990547
H       0.636767   -0.300250    0.751343
H      -1.862124   -0.228721    1.005044
H      -2.027936   -0.115245   -0.744580
H      -0.885497   -2.349924   -0.969623
H       0.272015   -4.103082    1.921662
H      -1.290815   -4.476155    1.151094
H       0.164805   -4.196717    0.144458
H      -2.983683   -2.218878   -2.052709
H      -4.403054   -2.824338   -1.270520
