16

C      -0.015282    1.522622    0.053261
C       1.312364    0.801384    0.011209
C       0.013492    0.011768    0.020367
C       0.068096   -0.660037   -1.338909
C       0.706407    0.307275   -2.379871
O       1.375433   -0.801263   -3.071611
C       1.552446   -1.075907   -1.645852
C       1.869618    0.435146   -1.351608
H      -0.286815    1.980240    0.999095
H      -0.358175    2.076597   -0.814537
H       1.970022    0.837741    0.871511
H      -0.312614   -0.549937    0.887603
H      -0.734058   -1.316815   -1.672598
H       0.236556    1.072992   -2.997787
H       2.101345   -1.975539   -1.362675
H       2.818422    0.842811   -1.697640
