18

O      -0.242037    0.046961   -0.055832
C      -0.027592    1.230325    0.001855
C       1.331450    1.876836   -0.114596
C       1.374171    2.921630   -1.241471
C       2.679452    3.726297   -1.249743
C       2.747744    4.796114   -2.375003
O       2.942123    6.046089   -1.668248
C       2.956187    5.715423   -0.357222
N       2.833091    4.505780   -0.002857
H      -0.864225    1.955057    0.149507
H       1.547351    2.389456    0.832216
H       2.081780    1.094301   -0.261583
H       1.253973    2.427188   -2.213603
H       0.534443    3.620899   -1.133381
H       3.521510    3.027370   -1.322905
H       3.586775    4.659547   -3.061182
H       1.821472    4.873022   -2.953312
H       3.079699    6.558698    0.313566
