19

C       0.407565    1.718595   -0.375305
C       0.069190    0.265164   -0.160815
N       1.177055   -0.665190    0.001636
C       0.280797   -0.453135    1.152914
C       0.840167    0.241317    2.353734
O       1.823142    0.956282    2.320224
C       0.094279    0.035612    3.637704
C       0.926618   -0.337902    4.829410
N       0.350663    0.994099    4.720549
H       1.272849    2.002439    0.224487
H       0.641786    1.891998   -1.431032
H      -0.440727    2.357523   -0.108180
H      -0.801510   -0.089692   -0.712937
H       0.969076   -1.564382   -0.424694
H      -0.446151   -1.229471    1.383092
H      -0.923966   -0.336203    3.568997
H       0.490697   -0.978542    5.590593
H       1.992715   -0.460550    4.659653
H       1.073118    1.627726    4.373741
