17

N       0.046014   -1.188824   -0.046797
C      -0.001192   -0.034521   -0.046127
C      -0.045629    1.427943   -0.023359
C       1.343915    2.044845   -0.080454
C       2.341665    1.817769    1.080771
N       2.759431    3.252034    1.004687
C       1.706147    3.552091    0.005004
C       2.217671    3.368123   -1.433387
O       1.946092    1.939659   -1.381918
H      -0.637411    1.781023   -0.874215
H      -0.556076    1.746132    0.892822
H       1.852519    1.538316    2.022133
H       3.143940    1.106362    0.867496
H       2.631729    3.748507    1.877773
H       1.018507    4.369458    0.227771
H       1.616999    3.852372   -2.213337
H       3.279540    3.586378   -1.578204
