15

C      -0.079094    1.464731   -0.284706
O       1.135256    1.718410    0.454971
C       1.391105    0.299149    0.590318
C       1.391844   -0.218999    2.037289
O       0.234472   -1.037827    2.160801
C      -0.759089   -0.520297    1.286542
C      -0.007730   -0.040930    0.030656
H      -0.936243    2.016376    0.120144
H       0.038905    1.711463   -1.347339
H       2.268697   -0.004053    0.009906
H       2.259183   -0.837468    2.283979
H       1.356731    0.643393    2.720022
H      -1.476800   -1.321325    1.092746
H      -1.295881    0.319544    1.758059
H      -0.077143   -0.734591   -0.806747
