25

C       0.013664    1.391651   -0.518504
C       1.291782    0.726370   -0.053436
C       2.128018    1.184990    1.149322
C       2.012479    0.337749    2.436970
C       0.972583    0.834902    3.468108
C      -0.327255    1.436527    2.914220
C      -1.320109    0.481424    2.230919
C      -0.794320   -0.525765    1.193231
C      -0.023160   -0.035480   -0.028446
H      -0.411567    2.155114    0.123585
H      -0.122937    1.592300   -1.576281
H       1.924525    0.399687   -0.874670
H       3.173669    1.160780    0.824763
H       1.930044    2.238379    1.380478
H       1.817140   -0.701591    2.157192
H       2.986930    0.325942    2.939033
H       0.737544    0.019283    4.164737
H       1.449120    1.615176    4.075506
H      -0.858282    1.916669    3.745999
H      -0.071497    2.256530    2.235060
H      -1.824072   -0.108063    3.008290
H      -2.106630    1.089144    1.765122
H      -0.200822   -1.295177    1.702040
H      -1.676215   -1.057749    0.812673
H      -0.077351   -0.771594   -0.827972
