19

C       0.018955    1.494485   -0.096372
C      -0.022941    0.006883    0.017180
O       0.848199   -0.733022   -0.849718
C      -0.049370   -1.881434   -0.758264
C       0.518310   -2.782983    0.326247
O       0.512699   -1.952537    1.491721
C      -0.345703   -0.853177    1.241321
C      -0.934475   -0.277812    2.496167
C      -1.122114   -1.040511   -0.037101
H       1.016957    1.863965    0.164284
H      -0.204446    1.810611   -1.120455
H      -0.703081    1.963181    0.576959
H      -0.254036   -2.334876   -1.728938
H      -0.098733   -3.682103    0.481711
H       1.548166   -3.082638    0.109861
H      -0.144097    0.081671    3.162620
H      -1.601705    0.558627    2.273086
H      -1.508289   -1.041490    3.030669
H      -2.193115   -1.009304   -0.191225
