15

O       0.042520    0.068340    0.060285
C       0.019582    1.264402    0.047930
C      -1.185776    2.237841    0.084905
C      -0.360230    3.535505    0.026227
O       0.631605    3.211226   -1.007836
C       1.184409    2.273627   -0.023843
C       0.756044    3.290178    1.047502
C       1.514582    4.170835    1.917544
O       0.654031    3.123283    2.432180
H      -1.834145    2.116358   -0.785773
H      -1.772278    2.107496    0.998519
H      -0.860761    4.491802   -0.114939
H       2.196278    1.923974   -0.211385
H       2.579644    4.005235    2.065259
H       1.164692    5.184854    2.101122
