23

C      -0.015173    1.504489    0.020679
C       0.012490   -0.006341    0.007957
C      -0.842280   -0.776440    0.993862
C       0.663871   -0.811462    1.113474
C       1.392088   -1.994450    0.494041
C       0.767769   -2.143836   -0.911076
C       0.324795   -0.716755   -1.313332
C      -0.813216   -0.694686   -2.325267
O      -0.364755   -1.351184   -3.504951
H       0.916073    1.921089   -0.382242
H      -0.841087    1.903191   -0.580390
H      -0.139280    1.888903    1.038291
H      -1.381757   -0.190989    1.731429
H      -1.371371   -1.669264    0.676117
H       1.115984   -0.307363    1.961878
H       2.460430   -1.758168    0.415436
H       1.310425   -2.913898    1.084645
H       1.454062   -2.581229   -1.638240
H      -0.105103   -2.805540   -0.874715
H       1.177143   -0.196402   -1.773441
H      -1.694419   -1.201090   -1.898688
H      -1.105884    0.345095   -2.542442
H      -1.087065   -1.355938   -4.139467
