16

C      -0.042936    1.449800   -0.031110
N      -0.040460   -0.008908   -0.003717
C      -1.203401   -0.707773   -0.034999
N      -2.379151   -0.009596   -0.114076
C      -1.155783   -2.091431   -0.038897
C       0.113744   -2.677122   -0.014492
N       1.260649   -2.036877    0.024552
C       1.257256   -0.669405    0.040115
O       2.249236    0.029591    0.085251
H       0.998497    1.757535   -0.100699
H      -0.604334    1.818958   -0.894971
H      -0.472515    1.865443    0.888933
H      -2.407546    0.931628    0.241517
H      -3.216830   -0.543821    0.052340
H      -2.063146   -2.679022   -0.061134
H       0.181816   -3.765569   -0.022355
