16

C      -0.086766    1.554556    0.013874
C      -0.007767    0.037395    0.010953
C       1.225462   -0.668065   -0.652792
N       2.051833   -0.143771    0.531761
C       0.765130   -0.698469    1.159044
C       0.897607   -1.874300    0.214869
N       0.883901   -3.133026    0.283509
O       1.206490   -3.712170   -0.971200
H       0.876584    1.999628    0.265027
H      -0.397746    1.920524   -0.970393
H      -0.831759    1.894868    0.740982
H      -0.965496   -0.426247   -0.238718
H       1.581330   -0.614952   -1.679186
H       2.824186   -0.789814    0.718158
H       0.587297   -0.679653    2.232843
H       1.146112   -4.652578   -0.772586
