20

N      -0.033143    1.247044    0.535286
C       0.057968    0.055212   -0.110486
O       1.112240   -0.314061   -0.616927
C      -1.218501   -0.766081   -0.172291
C      -1.975955   -0.631592   -1.519007
C      -2.850645   -1.914086   -1.610912
C      -2.353949   -2.854227   -0.479537
C      -0.988322   -2.294894   -0.069836
O      -0.036904   -2.744809   -1.010339
H       0.778556    1.843003    0.561701
H      -0.893264    1.575779    0.936214
H      -1.883052   -0.468788    0.649066
H      -2.561894    0.289983   -1.570567
H      -1.247137   -0.606583   -2.332403
H      -3.912486   -1.681215   -1.491220
H      -2.736231   -2.381492   -2.591221
H      -3.035815   -2.828824    0.377614
H      -2.257337   -3.894570   -0.797636
H      -0.704986   -2.589201    0.953490
H       0.683800   -2.090869   -1.004685
