15

O       0.692443   -0.073883    0.702072
C      -0.153302    0.317863   -0.401641
C      -1.518864   -0.278259   -0.276558
C      -1.749149   -1.522346    0.274395
O      -0.898947   -2.414736    0.828033
N      -3.082067   -1.795039    0.217419
C      -3.739971   -0.727746   -0.375283
C      -2.798838    0.219149   -0.683521
H       0.294424    0.297503    1.498317
H      -0.202670    1.412511   -0.481523
H       0.386165   -0.043107   -1.285889
H      -0.052534   -1.940642    0.904336
H      -3.504598   -2.628568    0.587299
H      -4.807348   -0.747874   -0.516584
H      -2.991933    1.168645   -1.160466
