13

N       0.201449    1.399947    0.045997
C       0.050592   -0.013436    0.040311
C      -0.456593   -0.686755    1.270096
O      -0.814254    0.158671    2.311897
C      -1.337521   -0.731145    0.014869
C      -2.522928    0.063673   -0.006502
N      -3.477191    0.720128   -0.012380
H      -0.143214    1.824440   -0.807849
H      -0.295235    1.804341    0.832482
H       0.808794   -0.547758   -0.525700
H      -0.009502   -1.633042    1.570820
H      -1.683040   -0.094782    2.643273
H      -1.402864   -1.676932   -0.512494
