17

N       0.095825   -1.086125   -0.040841
C       0.060906    0.070428    0.004158
C      -0.009848    1.497250    0.049001
N       0.331517    2.299156   -1.161014
C       1.193656    2.386131    0.029259
C       0.775659    3.438560    1.074877
C      -0.711519    3.716934    0.718490
C      -0.884446    2.222452    1.102588
C       0.208154    2.495706    2.195150
H       0.768742    1.683075   -1.845118
H       2.202997    1.993160   -0.002652
H       1.484388    4.237592    1.288228
H      -1.181655    4.366301    1.458451
H      -0.958485    4.029099   -0.293318
H      -1.852145    1.779966    1.331816
H       0.826122    1.653881    2.519944
H      -0.179134    3.040838    3.058548
