17

N       0.080882   -1.162379   -0.005960
C       0.028705   -0.008151    0.003219
C      -0.020875    1.449574    0.034978
C      -0.876709    2.156518    1.136216
C      -1.105810    3.208955    0.020760
C       0.070448    4.202122   -0.044848
C       1.378229    3.439697   -0.054988
C       1.355358    2.108044   -0.005193
N      -0.945616    2.087771   -0.958156
H      -1.785821    1.598512    1.357930
H      -0.356863    2.453515    2.046073
H      -2.075432    3.710271   -0.023296
H      -0.011091    4.835622   -0.939438
H       0.034185    4.889214    0.811481
H       2.311068    3.992793   -0.105489
H       2.246547    1.491223    0.003738
H      -0.467208    2.349608   -1.819063
