20

O       0.495763    1.175515   -0.552629
C       0.295035   -0.172678   -0.189145
C      -1.167643   -0.434753    0.172547
N      -1.988653   -0.025780   -0.967770
C      -2.515390   -1.051404   -1.864340
C      -3.426449   -0.263477   -0.986318
C      -4.162345   -0.938553    0.166167
C      -4.455817   -0.022251    1.264380
C      -4.691118    0.749909    2.154676
H      -0.261968    1.395089   -1.112299
H       0.595466   -0.858673   -1.000363
H       0.936621   -0.383479    0.673388
H      -1.300154   -1.491684    0.454759
H      -1.448415    0.186547    1.029511
H      -2.449394   -0.846643   -2.929382
H      -2.345019   -2.092994   -1.591605
H      -3.990127    0.556499   -1.427857
H      -5.100978   -1.353406   -0.223989
H      -3.587258   -1.793100    0.539202
H      -4.899112    1.426087    2.946578
