17

O       0.040790   -0.047941    0.200978
C      -0.003629    1.142883    0.020527
C      -1.323020    1.909535   -0.153904
C      -1.225502    3.226219   -0.967599
C       0.175945    3.848484   -0.839305
O       1.113764    2.827546   -1.213725
C       1.249403    2.038408   -0.029538
C       1.179988    3.064992    1.089225
C       0.548689    4.132551    0.608720
H      -2.055525    1.221350   -0.582912
H      -1.668314    2.124689    0.864894
H      -1.391796    3.015370   -2.028721
H      -2.003010    3.931352   -0.651311
H       0.302579    4.697432   -1.517278
H       2.156751    1.434278   -0.084053
H       1.527092    2.886894    2.097886
H       0.273084    5.033547    1.140770
