17

C      -0.259058    1.619025   -0.036302
C      -0.018610    0.099467    0.022663
C       0.747992   -0.408031   -1.108718
C       1.385330   -0.801448   -2.052954
C       2.133265   -1.313146   -3.178108
O       3.548518   -1.551380   -2.921335
C       3.484020   -2.958919   -3.217894
C       1.986331   -2.831664   -3.502837
O       1.098521   -3.551761   -3.826196
H       0.689570    2.162170   -0.045898
H      -0.813148    1.890091   -0.938850
H      -0.835655    1.945681    0.833957
H       0.505218   -0.157139    0.952273
H      -0.980906   -0.426633    0.065710
H       2.000139   -0.683327   -4.069323
H       4.097114   -3.249508   -4.080597
H       3.741609   -3.591005   -2.358428
