20

O       0.154916    0.698269   -1.514226
C       0.079886    1.419593   -0.544904
N       1.105565    1.700044    0.307781
C       2.395101    1.084766    0.207462
C       3.351658    1.551609   -0.860646
C       3.607926    1.907470    0.583266
C       3.467674    3.318125    1.064039
C       3.555465    3.634425    2.542105
C       4.665167    4.053696    1.610794
H      -0.850490    1.947451   -0.249012
H       0.897050    2.235131    1.137160
H       2.412004    0.025228    0.451037
H       3.974629    0.807953   -1.343626
H       3.000684    2.342027   -1.514349
H       4.394759    1.348908    1.084546
H       2.767668    3.919080    0.491178
H       2.905687    4.401962    2.948428
H       3.751018    2.812398    3.223071
H       5.604771    3.514180    1.667639
H       4.772532    5.106899    1.376903
