12

N      -0.047991    1.340915   -0.091565
C       0.041684    0.079376   -0.011904
N       1.230696   -0.649421    0.080000
C       1.137976   -1.925093    0.014938
N      -0.037064   -2.684532   -0.110684
N      -1.138410   -2.066037   -0.098699
N      -1.140792   -0.714859   -0.013569
C      -2.443834   -0.102502    0.060908
O      -3.458919   -0.725049    0.006039
H       0.886990    1.744598   -0.052541
H       2.040326   -2.528505    0.069055
H      -2.341249    0.983149    0.174157
