17

C       0.051334    1.486628    0.061155
C      -0.007368   -0.002037   -0.044130
C      -0.014325   -0.788156   -1.136757
C      -0.023965   -2.249646   -0.809026
C       1.234148   -2.714650   -0.075846
C      -0.020177   -2.312353    0.685924
O      -0.708827   -3.242282    1.443537
C      -0.092553   -0.879449    1.156106
O      -0.264945   -0.560829    2.314189
H       0.969203    1.810275    0.565403
H       0.012581    1.961858   -0.922200
H      -0.781546    1.860585    0.665955
H       0.048256   -0.426203   -2.158132
H      -0.572714   -2.957100   -1.418226
H       1.429224   -3.782549   -0.065288
H       2.109427   -2.073509   -0.087544
H      -0.773478   -2.849692    2.326634
