17

C      -0.637091    1.261292    0.007345
O       0.787889    1.116936   -0.008621
C      -0.004217   -0.064216   -0.000243
C       0.056546   -0.985367    1.217791
C      -0.442200   -2.311633    0.674656
C      -1.698307   -2.302085   -0.118682
N      -0.399772   -2.315646   -0.809501
C       0.046757   -0.979262   -1.229647
H      -1.054773    1.658956    0.932176
H      -1.075570    1.658940   -0.907833
H       1.097340   -1.075525    1.549383
H      -0.530015   -0.611587    2.061784
H      -0.120320   -3.226554    1.162914
H      -2.277332   -3.214214   -0.228797
H      -2.289709   -1.388400   -0.135538
H      -0.558665   -0.611571   -2.063627
H       1.084379   -1.055375   -1.574793
