15

C      -0.051151    1.532624   -0.143725
C       1.522824    1.674636    0.051086
C       2.008279    2.164802    1.449904
N       1.310869    1.244135    2.409705
C       1.065647    0.232358    1.692023
O      -0.129376   -0.448190    1.524792
C       0.011986   -0.028319    0.095513
C       1.526534    0.148616    0.246574
H      -0.698498    2.095044    0.530627
H      -0.338961    1.740837   -1.176812
H       2.046481    2.112862   -0.799813
H       3.103903    2.138427    1.533089
H       1.681508    3.182465    1.684463
H      -0.527060   -0.714010   -0.554840
H       2.291415   -0.562775   -0.056585
