19

C      -0.335500    1.424219   -0.211848
C      -0.350741   -0.011145   -0.728897
C       0.984753   -0.467259   -1.277160
O       1.979098    0.216391   -1.295369
C       1.041330   -1.907079   -1.830383
O       0.662900   -2.837234   -0.826287
C      -0.267867   -3.759884   -1.396897
C      -0.246741   -3.414988   -2.890255
O       0.120573   -2.039552   -2.884939
H       0.398882    1.543772    0.588933
H      -0.065338    2.124213   -1.006891
H      -1.318640    1.704899    0.175934
H      -0.634462   -0.724021    0.055847
H      -1.092446   -0.152290   -1.525239
H       2.071348   -2.113681   -2.163479
H       0.057951   -4.783794   -1.189022
H      -1.259553   -3.603923   -0.954991
H       0.500292   -4.013851   -3.430719
H      -1.214454   -3.511804   -3.385542
