19

C      -0.018945    1.468121   -0.035725
C      -0.071100   -0.023524   -0.033289
O       0.789698   -0.716111   -0.907303
C      -0.065411   -1.932465   -0.753774
C       0.599164   -2.754717    0.315238
C       0.468360   -2.086453    1.472657
C      -0.376785   -0.890899    1.266832
C      -1.142454   -1.058591   -0.034043
C      -2.628518   -1.050291   -0.221452
H       0.978751    1.813652    0.255743
H      -0.238618    1.867397   -1.031371
H      -0.742451    1.880804    0.673089
H      -0.271585   -2.376619   -1.727063
H       1.231764   -3.610867    0.122471
H       0.967584   -2.317030    2.406215
H      -0.837631   -0.353613    2.088302
H      -3.084988   -0.231447    0.344370
H      -2.901386   -0.920105   -1.274706
H      -3.077950   -1.985922    0.131142
