16

C      -0.126517    1.505385    0.020694
C       0.045234   -0.001806   -0.004024
O       1.138172   -0.537538   -0.019009
C      -1.173623   -0.816625   -0.009466
C      -1.345051   -2.174639   -0.036418
C      -2.751193   -2.412056   -0.023294
N      -3.379776   -3.656674   -0.114943
C      -3.332780   -1.169430    0.010530
O      -2.385214   -0.194867    0.015436
H       0.858040    1.973450    0.020875
H      -0.701169    1.841526   -0.848453
H      -0.688345    1.814202    0.908215
H      -0.550311   -2.903335   -0.065768
H      -2.857085   -4.398265    0.331015
H      -4.331751   -3.656889    0.225529
H      -4.357796   -0.837144    0.026099
