13

O      -0.109411    1.283696    0.010033
N       1.153107    2.115316    0.002263
N       2.224450    1.514960   -0.011190
C       2.413355    0.146022   -0.020179
C       1.345975   -0.685685   -0.014286
C       1.109652   -2.079617   -0.019425
C      -0.265784   -2.245111   -0.006856
C      -0.969552   -0.991824    0.006394
C      -0.002649   -0.025313    0.002149
H       3.451082   -0.161595   -0.031827
H       1.859157   -2.855291   -0.030808
H      -0.766350   -3.206225   -0.007057
H      -2.038020   -0.849897    0.017414
