21

C      -0.221539    1.337363   -0.074653
O      -0.240994   -0.054875   -0.270744
C       0.888932   -0.518345   -0.992522
C       0.802473   -2.022077   -1.073627
C      -0.118807   -2.756729   -2.018413
C      -0.629853   -2.009725   -3.235838
O       0.513663   -1.423562   -3.860363
C       1.671478   -2.185744   -3.528525
C       1.379575   -2.854964   -2.197507
H       0.659222    1.658209    0.505537
H      -0.216965    1.887814   -1.029333
H      -1.124216    1.604008    0.481065
H       0.916772   -0.061303   -1.990536
H       1.815069   -0.226705   -0.466872
H       0.881441   -2.493946   -0.097435
H      -0.708107   -3.584956   -1.643011
H      -1.137449   -2.708797   -3.919192
H      -1.321028   -1.194184   -2.998563
H       1.872343   -2.956995   -4.289794
H       2.520677   -1.493190   -3.517207
H       1.928262   -3.757412   -1.953562
