17

N       0.058853    0.471893    0.916020
C       0.100255    0.007431   -0.367282
O       0.953575    0.327400   -1.170419
C      -1.053038   -0.940053   -0.712302
C      -1.012208   -2.245928    0.087609
N      -1.232417   -2.108017    1.566505
C      -2.369660   -3.074604    1.567831
C      -2.282219   -3.118894    0.033493
O      -2.938917   -3.593278   -0.841347
H       0.838696    1.020826    1.240651
H      -0.553472    0.025609    1.585125
H      -2.006612   -0.434754   -0.522201
H      -0.987028   -1.167322   -1.777660
H      -0.112085   -2.819369   -0.172435
H      -0.441174   -2.435958    2.108295
H      -2.163086   -4.046689    2.032550
H      -3.300520   -2.676835    1.985032
