20

C      -0.625128    1.467119   -0.220467
C      -0.401946   -0.041679   -0.082349
C       0.263855   -0.624311   -1.317829
O       1.584780   -0.085083   -1.544445
C       2.192120   -1.390064   -1.459685
C       0.831669   -2.083779   -1.265438
C       0.658445   -2.839894    0.040641
N      -0.331696   -3.778812    0.033212
O       1.328987   -2.610992    1.030653
H       0.326325    1.975725   -0.398661
H      -1.292657    1.698024   -1.058541
H      -1.071145    1.883260    0.687429
H       0.223355   -0.256611    0.789656
H      -1.359342   -0.557842    0.072132
H      -0.372397   -0.457639   -2.199656
H       2.730964   -1.652611   -2.377173
H       2.853440   -1.481591   -0.592535
H       0.509422   -2.688985   -2.115773
H      -0.875770   -3.985761   -0.785190
H      -0.513921   -4.289708    0.881585
