19

C       0.262569    1.414053    0.032707
N       0.282544   -0.041579    0.071446
C       0.522452   -0.676524   -0.976289
O       0.760850   -0.223884   -2.277569
C       0.781644   -1.592959   -2.804798
C      -0.155148   -1.768056   -3.965588
C       2.210307   -2.182437   -2.812663
N       2.086045   -2.549060   -1.370511
C       0.651993   -2.135779   -1.352466
H       1.092424    1.799384    0.636041
H       0.339104    1.836223   -0.976161
H      -0.662716    1.770247    0.497833
H       0.183032   -1.172279   -4.820679
H      -0.195903   -2.816410   -4.275961
H      -1.164707   -1.440421   -3.701831
H       2.304967   -3.040445   -3.489119
H       3.012274   -1.468355   -3.023005
H       2.201069   -3.541227   -1.204437
H      -0.081751   -2.850839   -0.981390
