13

C      -0.202505    1.515770    0.068452
C       0.027212    0.036325   -0.000649
N       0.083342   -0.472499   -1.189789
O       0.301119   -1.875403   -1.256623
C       0.438514   -2.620535   -0.155422
O       0.626162   -3.815216   -0.190470
C       0.349279   -1.882050    1.132880
O       0.488597   -2.637910    2.205524
N       0.153283   -0.616834    1.214182
H       0.626027    1.990721    0.602856
H      -0.288749    1.940200   -0.931560
H      -1.114896    1.718779    0.637619
H       0.623611   -3.546741    1.874039
