15

C       0.005985    1.425640   -0.000361
N      -0.049111   -0.022536   -0.001354
C      -0.048704   -0.791971   -1.157355
C       0.015939   -2.085321   -0.710229
O       0.026443   -3.376556   -1.161768
C       0.076726   -4.101527    0.012657
N       0.093458   -3.442396    1.119668
C       0.056313   -2.110652    0.697366
C       0.018521   -0.801837    1.134185
H       1.033286    1.794324   -0.102101
H      -0.591406    1.818425   -0.826845
H      -0.411303    1.803316    0.935509
H      -0.092330   -0.336501   -2.131055
H       0.099773   -5.173365   -0.114599
H       0.032736   -0.351598    2.112337
