21

C      -0.244585    1.393441   -0.169383
C       1.202750    1.224148    0.213073
C       0.321617    0.007675    0.041793
C      -0.091437   -0.776841    1.257979
C      -1.243761   -1.854252    1.115367
C      -0.142083   -2.816445    0.553551
C       0.721702   -2.082732    1.635513
C      -0.031068   -2.496797    2.904809
C      -1.315931   -2.347230    2.564851
H      -0.925412    1.779525    0.582304
H      -0.478977    1.704942   -1.181325
H       1.961871    1.419448   -0.536319
H       1.495323    1.496349    1.221996
H       0.494249   -0.563735   -0.864582
H      -0.234231   -0.090102    2.099230
H      -2.170531   -1.645564    0.580683
H      -0.303266   -3.887955    0.691946
H       0.155107   -2.606010   -0.476902
H       1.811507   -2.108435    1.634485
H       0.411471   -2.811665    3.839221
H      -2.214214   -2.506056    3.144481
