18

C       0.011837   -1.190710   -0.021647
C       0.014476    0.012471   -0.004316
C       0.015950    1.452602    0.015402
C      -0.287224    2.273120    1.316051
C       0.431677    3.406475    0.532911
C       1.339038    2.290113   -0.054501
C      -0.548456    3.668387   -0.626844
C      -0.868348    2.191061   -1.024697
H       0.011060   -2.252139   -0.034969
H      -1.336769    2.411549    1.591343
H       0.287175    1.910350    2.170379
H       0.851861    4.273189    1.042230
H       2.088125    1.929170    0.652605
H       1.786368    2.444169   -1.040733
H      -1.437684    4.216710   -0.302993
H      -0.085414    4.230814   -1.442645
H      -0.571894    1.947838   -2.048085
H      -1.924113    1.933733   -0.908462
