23

C      -0.223160    1.359855   -0.251621
O      -0.270649   -0.041572   -0.348956
C       0.913375   -0.590468   -0.900044
C       0.788343   -2.096352   -0.903201
C       0.690904   -2.726172    0.472584
C       0.000001   -2.719896   -2.045440
C       1.503300   -2.854811   -1.984545
O       2.298757   -2.138424   -2.876602
C       2.401249   -2.757938   -4.142849
H       0.597083    1.699519    0.401650
H      -0.089854    1.835397   -1.236915
H      -1.173144    1.692834    0.174301
H       1.079657   -0.214005   -1.918897
H       1.785568   -0.286215   -0.294633
H      -0.177935   -2.333213    1.008241
H       0.589597   -3.813912    0.408195
H       1.584252   -2.506771    1.069488
H      -0.617103   -3.588766   -1.842121
H      -0.402536   -2.040236   -2.788962
H       1.912653   -3.831802   -1.717731
H       2.860141   -3.755641   -4.068582
H       1.417949   -2.865272   -4.622530
H       3.037470   -2.121817   -4.762681
