17

N       0.099907    1.353786    0.177419
C      -0.004468   -0.013407    0.023405
C      -1.178764   -0.682693   -0.001706
C      -1.273352   -2.143852    0.000734
O      -2.333406   -2.750346   -0.050849
N      -0.072467   -2.830097    0.085897
C       1.219911   -2.246658   -0.040473
C       1.650479   -1.528147   -1.294804
C       1.287732   -0.737900   -0.041183
H       0.899389    1.795444   -0.251334
H      -0.753626    1.882039    0.071005
H      -2.129513   -0.162194    0.003536
H      -0.164010   -3.830129   -0.009707
H       1.988832   -2.772321    0.517375
H       2.696985   -1.564593   -1.576816
H       0.943775   -1.493864   -2.116008
H       2.102191   -0.269388    0.502586
