23

C      -0.051219    1.382571   -0.066827
O       0.010434   -0.021910   -0.045976
C       0.661411   -0.526837    1.099818
C       0.673581   -2.047644    1.023825
C       1.362976   -2.690870    2.230185
C       1.376961   -4.217086    2.157294
C       2.057424   -4.885723    3.345998
C       2.101325   -6.404626    3.327065
O       2.536029   -4.245293    4.254043
H       0.952452    1.837826   -0.064715
H      -0.568404    1.675663   -0.983964
H      -0.607021    1.782160    0.796902
H       1.693111   -0.137058    1.158622
H       0.142214   -0.192286    2.015403
H      -0.362437   -2.399871    0.943846
H       1.175062   -2.345115    0.094405
H       2.394290   -2.329450    2.314524
H       0.867244   -2.383745    3.158230
H       0.355055   -4.616625    2.083458
H       1.878652   -4.562486    1.241667
H       2.626052   -6.760828    2.433378
H       2.607419   -6.772232    4.220432
H       1.086570   -6.815962    3.282752
