18

C       0.573570    1.275388    0.580272
C      -0.104204    0.171309   -0.235055
C       0.877199   -0.567576   -1.143024
N       0.176034   -1.587472   -1.931320
C       1.033929   -2.345410   -2.826894
C       2.085771   -3.146439   -2.141915
N       2.889505   -3.718376   -1.540696
C       0.222417   -3.222500   -3.689671
N      -0.421650   -3.902646   -4.363408
H       1.366135    0.870686    1.218554
H       1.024624    2.030712   -0.072239
H      -0.148170    1.782661    1.226323
H      -0.575028   -0.550937    0.445491
H      -0.908518    0.588467   -0.850935
H       1.333222    0.138818   -1.849437
H       1.697812   -0.992048   -0.540710
H      -0.328645   -2.224319   -1.321744
H       1.552584   -1.630514   -3.480358
