18

N      -0.333555    0.769505    0.697347
C      -0.437764   -0.471924    0.490900
O      -0.773546   -0.919437   -0.738628
C      -0.955905   -2.332433   -0.861463
C      -2.321577   -2.758066   -0.380593
C      -2.678065   -4.161367    0.084195
C      -1.564707   -4.738877    0.953297
O      -1.520559   -3.535050    1.769891
C      -2.646885   -3.005039    1.061721
H      -0.055551    0.932410    1.663086
H      -0.274777   -1.276135    1.220049
H      -0.838145   -2.546068   -1.926766
H      -0.165454   -2.860542   -0.318170
H      -3.143079   -2.287333   -0.916368
H      -3.510913   -4.718318   -0.322219
H      -1.897163   -5.589942    1.557008
H      -0.598606   -4.971495    0.491624
H      -3.413022   -2.497763    1.636036
