22

C       0.388682    2.030773   -0.225788
C       0.306261    0.521749    0.029009
C       0.882816   -0.290800   -1.123041
C       2.418146   -0.344447   -1.337196
N       2.290621   -1.773316   -1.651512
C       3.355682   -2.704375   -1.345579
C       0.950360   -1.862031   -1.039466
C       0.885325   -2.386053    0.379683
O      -0.029636   -3.042809    0.810919
H       1.426399    2.356696   -0.356060
H      -0.161852    2.308581   -1.131311
H      -0.034619    2.596276    0.609493
H       0.831925    0.282047    0.961611
H      -0.739761    0.229929    0.185827
H       0.380115   -0.018517   -2.055574
H       2.853358    0.265243   -2.137533
H       2.973730   -0.139093   -0.404689
H       3.732097   -2.648869   -0.308948
H       3.011217   -3.727505   -1.529215
H       4.203266   -2.515245   -2.014008
H       0.209803   -2.412122   -1.631457
H       1.750016   -2.119847    1.029566
