19

C      -0.090846    1.440475    0.045677
C       1.235340    2.175724    0.045842
C       2.254430    1.155585    0.432006
O       1.653664   -0.084449    0.654932
C       0.317095   -0.054891    0.126063
C       0.278260   -0.770754   -1.225266
C       1.089805   -0.116140   -2.308575
C       1.928382    0.918329   -2.192019
C       2.273128    1.707965   -0.987334
H      -0.673960    1.737646    0.922976
H      -0.696771    1.636796   -0.843892
H       1.274254    3.200553    0.396604
H       3.086950    1.338949    1.101710
H      -0.310460   -0.605602    0.834286
H       0.628920   -1.801625   -1.076032
H      -0.769973   -0.860910   -1.548510
H       0.973126   -0.556113   -3.296954
H       2.436466    1.246404   -3.096005
H       3.061474    2.436280   -1.154467
