21

C       0.042424    1.680524    0.089459
C       0.099178    0.149596   -0.060444
C       0.818010   -0.543184    1.092811
O       2.161321   -0.101677    1.114408
C       2.937523   -0.705121    2.135231
C       4.305840   -0.044204    2.102436
O       4.217780    1.345204    2.349442
C      -1.297291   -0.405381   -0.250433
O      -1.790390   -1.283099    0.411672
H       1.053298    2.090406    0.122638
H      -0.486445    2.142180   -0.750396
H      -0.473331    1.964071    1.013072
H       0.643351   -0.073706   -0.991590
H       0.317702   -0.310739    2.046410
H       0.771183   -1.634100    0.964270
H       2.465582   -0.543533    3.117378
H       3.023511   -1.791481    1.969832
H       4.940664   -0.473046    2.884570
H       4.780299   -0.252126    1.129961
H       3.533523    1.673244    1.754990
H      -1.868680    0.077171   -1.077429
