18

C      -0.080462    1.545812   -0.013775
C       1.472316    1.531093   -0.068254
C       1.423717    0.108063    0.550173
C      -0.055742   -0.004081    0.093602
N       2.383379   -0.891522    0.129110
C       2.678903   -1.318974   -1.136945
N       3.606956   -2.241547   -1.119197
N       3.952210   -2.445502    0.202768
C       3.215757   -1.636643    0.918727
H      -0.452079    2.012267    0.902134
H      -0.606983    1.980206   -0.864428
H       1.837995    1.499611   -1.098126
H       2.025651    2.297430    0.478025
H       1.484436    0.162483    1.639547
H      -0.754912   -0.496080    0.772550
H      -0.128695   -0.476235   -0.889810
H       2.197319   -0.932791   -2.021299
H       3.236338   -1.543624    1.993948
