16

O      -0.064470    1.328517    0.006302
C       0.020200   -0.046299    0.001762
C       0.661069   -0.982590    1.077212
C       0.006988   -1.908919   -0.003405
C      -1.224829   -0.964340    0.007858
C       0.645806   -0.976347   -1.087963
C       0.026644   -3.393664   -0.008374
O      -0.956205   -4.092356   -0.006843
H       0.826759    1.694733    0.001468
H       1.752954   -0.997805    1.137381
H       0.193196   -0.994280    2.064301
H      -1.828662   -0.966066    0.917348
H      -1.841369   -0.960917   -0.893049
H       0.164030   -0.982536   -2.068384
H       1.736735   -0.991292   -1.163587
H       1.049343   -3.837929   -0.014054
