14

O       0.564777    1.220523    0.166901
C       0.185679   -0.078734    0.006425
C      -0.254720   -0.607096   -1.182889
N      -0.532679   -1.945346   -0.952089
C      -0.284541   -2.236800    0.351032
O      -0.533924   -3.504179    0.804446
C       0.501644   -4.172627    1.400555
O       0.354236   -5.244257    1.894181
C       0.168350   -1.108464    0.995880
H       0.778742    1.367885    1.092254
H      -0.394781   -0.153690   -2.148150
H      -0.890339   -2.602463   -1.622847
H       1.439896   -3.592620    1.359026
H       0.423152   -1.025855    2.040948
