11

N       0.055067   -3.709118   -0.018309
C       0.041840   -2.546838   -0.011808
C       0.021370   -1.184159   -0.004119
C      -0.003891    0.025825    0.002803
C      -0.039229    1.432612    0.010943
C      -1.132946    2.249195    0.030251
O      -0.699381    3.531885    0.031342
C       0.656186    3.435117    0.012398
N       1.111982    2.231048   -0.000344
H      -2.196074    2.083857    0.043794
H       1.207022    4.362261    0.009962
