14

O      -0.071384    1.452476    0.010530
C      -0.035509    0.032695    0.002810
C      -1.394901   -0.490832    0.012908
C      -2.503852   -0.961878    0.020884
C      -3.837467   -1.465225    0.030821
N      -3.990156   -2.752720    0.025268
O      -5.322806   -3.112759    0.036017
C      -4.910329   -0.523598    0.046188
C      -5.797536    0.288354    0.059092
H       0.839861    1.762782    0.004450
H       0.485439   -0.353328   -0.889006
H       0.502125   -0.362534    0.880574
H      -5.277351   -4.075934    0.030338
H      -6.582124    1.004349    0.070575
