18

C      -0.023545    1.378239   -0.054016
N      -0.002724   -0.076288   -0.017780
C       0.575636   -0.635648    0.953650
O       1.208812   -0.053267    2.016155
N       1.724846   -1.066859    2.883576
C       1.390592   -2.183383    2.323410
C       1.731284   -3.512981    2.896799
N       0.695727   -2.007637    1.156439
C       0.157489   -3.002773    0.253971
H       0.986799    1.808937   -0.085418
H      -0.557349    1.702386   -0.950762
H      -0.532245    1.809732    0.819100
H       2.284430   -3.368744    3.825344
H       0.826941   -4.093266    3.107499
H       2.346725   -4.094225    2.202285
H      -0.582901   -3.634958    0.754243
H      -0.325582   -2.456011   -0.557336
H       0.949386   -3.635803   -0.158674
