23

C       0.012799    1.530775    0.004197
C       0.003981   -0.006646    0.017060
C       0.645479   -0.540437    1.297177
O      -1.340423   -0.483560    0.002932
C       0.726247   -0.545484   -1.238046
C       0.837471   -2.068996   -1.352199
C       0.866544   -2.277772   -2.872141
C      -0.083672   -1.178530   -3.365287
O      -0.053855   -0.141489   -2.378274
H       1.031735    1.924059    0.088830
H      -0.419064    1.907946   -0.926696
H      -0.576703    1.909480    0.843697
H       0.139331   -0.117628    2.169610
H       0.561707   -1.628470    1.353054
H       1.703776   -0.265638    1.348387
H      -1.671448   -0.267018   -0.878796
H       1.723621   -0.082154   -1.305353
H       1.720249   -2.467226   -0.847693
H      -0.054379   -2.526358   -0.912156
H       1.876990   -2.112544   -3.260908
H       0.548215   -3.276180   -3.181664
H       0.213575   -0.758649   -4.332909
H      -1.112962   -1.550924   -3.460023
