17

O       0.052680    0.009183    0.119646
C      -0.003565    1.201136    0.048993
C      -1.171280    2.219901    0.063470
C      -0.114993    3.322417    0.188877
C      -0.011842    4.785828   -0.203728
O       0.859399    5.041987    0.930097
C       0.596309    3.738915    1.504271
C       1.740552    2.723001    1.281972
C       1.063334    2.311813   -0.063239
H      -1.674528    2.223867   -0.912042
H      -1.929698    2.113176    0.843823
H       0.466113    5.024403   -1.161296
H      -0.950403    5.351550   -0.118517
H       0.118266    3.809482    2.486625
H       2.715605    3.201105    1.169732
H       1.815639    1.922366    2.022825
H       1.666671    2.292669   -0.973339
