23

C       0.038249    1.520399   -0.036171
C       0.013902   -0.013451    0.030403
C       0.794468   -0.502236    1.259783
C      -1.427666   -0.559760    0.011138
C      -2.255271   -0.130966   -1.234306
C      -3.291147   -1.253498   -1.479019
C      -2.626014   -2.487317   -0.905510
O      -1.257105   -2.645920   -1.309627
C      -1.533615   -2.077770   -0.017715
H       1.067814    1.893096   -0.034393
H      -0.450293    1.900122   -0.937881
H      -0.472359    1.957902    0.830769
H       0.512670   -0.404680   -0.867090
H       0.867034   -1.593153    1.294379
H       1.814759   -0.104991    1.255035
H       0.315810   -0.167517    2.188538
H      -1.938312   -0.219702    0.925928
H      -2.727715    0.844950   -1.104055
H      -1.587829   -0.058533   -2.097358
H      -4.222479   -1.069028   -0.928767
H      -3.552821   -1.361154   -2.536395
H      -3.179055   -3.413879   -0.770156
H      -1.215346   -2.680669    0.828898
