16

C       0.065629    1.519671    0.030895
C       0.053444    0.012581    0.017459
C       0.151556   -0.710785   -1.169259
F       0.259043   -0.027369   -2.320920
C       0.144129   -2.095922   -1.223504
C       0.032538   -2.798935   -0.026709
C      -0.068242   -2.126896    1.184782
C      -0.057525   -0.732163    1.202301
O      -0.159271   -0.124051    2.417472
H       0.158444    1.910663   -0.982294
H      -0.857974    1.931923    0.458400
H       0.907374    1.916055    0.614060
H       0.224186   -2.592434   -2.182171
H       0.024223   -3.883322   -0.040745
H      -0.155713   -2.658447    2.124600
H      -0.140742    0.831043    2.301093
