21

C      -0.141401    1.369814   -0.284148
C       1.399924    1.454863   -0.045507
C       2.324824    1.479979   -1.277655
C       3.355952    0.369687   -0.993687
C       2.523649   -0.765897   -0.352852
C       1.423004   -0.038195    0.421004
C       1.092203   -0.283939    1.896839
O      -0.329220   -0.190572    1.644907
C      -0.124484   -0.090428    0.218593
H      -0.765301    2.026758    0.325470
H      -0.425982    1.480914   -1.335106
H       1.715961    2.183911    0.706952
H       1.755386    1.228608   -2.181540
H       2.784429    2.457446   -1.450430
H       3.902032    0.051511   -1.886546
H       4.098985    0.732753   -0.272944
H       2.089439   -1.405374   -1.130709
H       3.125409   -1.417136    0.289314
H       1.366081   -1.284576    2.261297
H       1.440049    0.465674    2.620474
H      -0.672244   -0.860687   -0.334198
