17

C      -0.057485   -1.187231   -0.332433
C      -0.063144   -0.004117   -0.121287
C      -0.034312    1.431848    0.147639
C       1.371757    1.982338    0.171924
C       2.454425    1.647394    1.213184
C       2.996166    3.110252    1.074259
C       1.898101    3.385769    0.037301
N       1.970933    2.439171   -1.073917
H      -0.065791   -2.230908   -0.527039
H      -0.604694    1.967425   -0.619573
H      -0.524060    1.631158    1.110094
H       2.049337    1.450762    2.209026
H       3.128149    0.827855    0.944097
H       2.879761    3.685052    1.996060
H       4.023410    3.232215    0.714387
H       1.378092    4.323022   -0.128670
H       2.910854    2.076130   -1.225406
