15

O       0.180259    1.410870   -0.106404
C       0.100407    0.034420   -0.050417
C       0.006212   -0.650607    1.354700
N      -1.371124   -0.023861    1.446858
C      -1.317721   -0.627674    0.054337
C      -0.626186   -1.894181    0.630905
O       0.116109   -2.657009   -0.278222
C      -1.459976   -2.747488    1.488317
N      -2.072710   -3.461530    2.160921
H      -0.456699    1.735962    0.547961
H       0.793277   -0.398916   -0.766008
H       0.706500   -0.639824    2.190693
H      -1.987812   -0.558980    2.063854
H      -2.162975   -0.588635   -0.632477
H       0.599000   -3.340193    0.200755
