19

O      -0.126842    0.011294    0.252351
C      -0.036436    1.191346    0.100661
C      -1.011669    2.367964   -0.048297
C      -1.580129    2.886798    1.280239
C      -0.513562    3.535277    2.184522
C       0.757229    2.695179    2.424086
C       1.739025    2.636160    1.234881
C       1.095476    2.211640   -0.085980
O       0.096563    3.171877   -0.531277
H      -1.790155    2.239163   -0.808593
H      -2.368163    3.619753    1.076201
H      -2.061272    2.041678    1.790103
H      -0.226194    4.499182    1.751438
H      -0.982139    3.752717    3.150633
H       1.295929    3.111452    3.282300
H       0.472988    1.675070    2.715077
H       2.191358    3.622400    1.074095
H       2.555302    1.941096    1.464777
H       1.837253    2.004102   -0.864554
