19

O       0.434110    1.006638    0.652749
C       0.038660   -0.239228    0.133044
C      -1.479974   -0.410256   -0.018850
C      -2.242173    0.846368   -0.534565
C      -2.250240    0.250906   -1.974329
C      -1.285861   -0.867699   -1.510978
C       0.238550   -0.519768   -1.418225
C       0.794387    0.651373   -2.180773
O       1.913074    0.680159   -2.635127
H       1.394204    1.019784    0.727037
H       0.477643   -1.064848    0.708290
H      -1.989903   -1.007754    0.737098
H      -3.229369    0.992969   -0.092791
H      -1.675710    1.771787   -0.414726
H      -3.226959   -0.167340   -2.232192
H      -1.938458    0.895680   -2.799775
H      -1.485279   -1.881859   -1.857142
H       0.897167   -1.370615   -1.602326
H       0.129438    1.534514   -2.274741
