11

O      -0.165014   -0.015380    0.002156
C      -0.061879    1.176754    0.009579
N       1.143612    1.887432    0.002119
C       1.255363    3.289411    0.011539
C       2.557403    3.571854   -0.000021
O       3.302696    2.414675   -0.016449
C       2.444876    1.331439   -0.015812
O       2.791863    0.194256   -0.027758
H      -0.919196    1.876749    0.024407
H       0.391065    3.930948    0.025475
H       3.103101    4.498965    0.001267
