21

O      -0.107004    1.476404   -0.061339
C       0.016258    0.066188    0.068636
C      -1.379142   -0.537196    0.004162
C      -2.088434   -0.356336   -1.371422
C      -2.345664   -1.818258   -1.731131
C      -2.761347   -2.596949   -0.439194
C      -2.049300   -3.856413   -0.983914
C      -1.105518   -2.678508   -1.320602
C      -1.391711   -2.066619    0.093031
H       0.775951    1.857048   -0.060792
H       0.639649   -0.353125   -0.738468
H       0.495115   -0.202409    1.024740
H      -1.969965   -0.093486    0.814146
H      -3.013243    0.223252   -1.293729
H      -1.447911    0.152847   -2.098769
H      -2.854573   -2.049489   -2.669595
H      -3.722841   -2.537344    0.075856
H      -1.692052   -4.579988   -0.245003
H      -2.524542   -4.362968   -1.829221
H      -0.142646   -2.721734   -1.834368
H      -0.950641   -2.542598    0.972419
