19

C      -0.005306    1.550874   -0.014952
C      -0.006282    0.040074    0.031056
C      -1.330557   -0.729021    0.309066
C      -0.636058   -1.522921    1.469636
O      -0.641425   -2.921590    1.421465
C       0.706497   -0.768495    1.176718
C       1.629998   -1.394188    0.110334
O       0.806539   -2.081341   -0.852599
C       0.954927   -0.657987   -0.973610
H       1.015056    1.951096   -0.039889
H      -0.528023    1.919194   -0.906219
H      -0.507157    1.971706    0.862550
H      -2.147573   -0.083198    0.642408
H      -1.688213   -1.360046   -0.507517
H      -1.037882   -1.249480    2.449067
H      -0.320175   -3.156721    0.541495
H       1.219409   -0.265735    1.997686
H       2.648719   -1.751110    0.208992
H       1.315572   -0.292952   -1.930162
