17

C       0.161423    1.314428    0.160965
O      -0.168427   -0.035533   -0.141890
C       0.511099   -0.538608   -1.218569
C       0.165197   -0.359748   -2.686402
N       0.884337   -1.691413   -2.978667
C       2.259775   -1.271314   -3.190988
N       2.909501   -0.884645   -2.168551
C       1.975294   -1.056987   -1.067828
C       0.865748   -1.969530   -1.486005
H       1.232415    1.421894    0.376897
H      -0.100943    1.988830   -0.665204
H      -0.418395    1.590004    1.043662
H      -0.902909   -0.485575   -2.872774
H       0.549496    0.500146   -3.245765
H       2.642635   -1.234729   -4.205565
H       2.366101   -1.062696   -0.058618
H       0.544364   -2.919183   -1.076750
