20

C       0.036784    1.414211    0.048194
N      -0.059849   -0.023732    0.039952
C      -0.052876   -0.903411   -1.013786
O      -0.083471   -0.728864   -2.205022
C       0.028842   -2.111874   -0.057972
C       0.062621   -1.061317    1.097398
C       1.366255   -0.984345    1.886555
C      -1.160095   -1.120941    2.018250
O      -1.247525   -0.007637    2.895773
H       0.890260    1.752942    0.646168
H       0.178386    1.739391   -0.985830
H      -0.869748    1.898954    0.433981
H      -0.845023   -2.767420   -0.077871
H       0.936458   -2.708338   -0.166766
H       2.225188   -0.895264    1.215105
H       1.355454   -0.128795    2.567035
H       1.495415   -1.886663    2.492962
H      -2.069536   -1.223277    1.409006
H      -1.085766   -2.007826    2.658017
H      -1.578553    0.742388    2.393241
