21

C      -0.200337    1.525993   -0.072018
N       0.199835    0.125946    0.069300
C       1.419915   -0.543821   -0.278865
C       1.466319   -1.582885   -1.360796
C       2.723755    0.169693    0.252488
N       2.357341    1.446299    0.912992
C       2.193964    0.156817    1.627682
C       0.874931   -0.556789    1.135384
C       0.189721   -1.613224    1.951964
H       0.456252    2.065083   -0.757935
H      -1.224636    1.556079   -0.466041
H      -0.176342    2.050220    0.885488
H       1.614522   -1.119854   -2.344533
H       2.291262   -2.286489   -1.199881
H       0.528545   -2.143482   -1.390930
H       3.729645   -0.019794   -0.100520
H       3.224833    1.863939    1.251195
H       2.704245   -0.044716    2.561134
H      -0.363241   -1.166862    2.788084
H      -0.522429   -2.168362    1.336123
H       0.913629   -2.319311    2.374907
