16

O      -0.101427    0.047322    0.667310
C      -0.139686    1.171196    0.259606
C      -1.418812    2.047267    0.078618
C      -0.872488    3.490487    0.265234
C       0.616178    3.360616   -0.083672
C       1.551742    2.803339    0.927951
N       0.990220    1.941823   -0.133787
C      -1.993057    1.824885   -1.240433
C      -2.447120    1.651876   -2.339728
H      -2.137873    1.757733    0.849712
H      -1.376997    4.199214   -0.391173
H      -1.016170    3.825552    1.296668
H       1.011015    3.974496   -0.887164
H       2.620897    2.977227    0.853239
H       1.183828    2.651943    1.940134
H      -2.855290    1.486567   -3.306080
