25

C       0.065822    1.463328   -0.180892
C       0.054651   -0.056339    0.033185
C       0.799236   -0.438567    1.319479
C      -1.373693   -0.601401    0.039628
C      -2.214882   -0.509573   -1.265840
C      -2.757674   -1.933098   -0.993612
C      -4.137938   -1.956160   -0.344401
O      -2.734188   -2.730887   -2.164227
C      -1.588822   -2.142151    0.019261
H       1.089662    1.849128   -0.226988
H      -0.439139    1.741711   -1.111405
H      -0.444923    1.977323    0.642560
H       0.579381   -0.522379   -0.814303
H       0.315108    0.006131    2.197544
H       0.819793   -1.523471    1.464487
H       1.835006   -0.083693    1.297863
H      -1.921580   -0.152530    0.878115
H      -2.946165    0.297292   -1.361388
H      -1.577541   -0.522854   -2.154937
H      -4.899185   -1.626319   -1.058389
H      -4.393037   -2.970417   -0.010766
H      -4.179402   -1.303335    0.533270
H      -3.095762   -3.596461   -1.944030
H      -0.757322   -2.654919   -0.473980
H      -1.816010   -2.646333    0.963079
