22

C       0.118898    1.809650    0.238042
C       0.048841    0.300761   -0.011787
N       0.656382   -0.026359   -1.302456
C       0.082937   -0.849299   -2.218246
O      -0.989837   -1.404654   -2.094777
C       0.685099   -0.504061    1.121216
C      -0.025893   -0.516392    2.506531
C       0.305638   -2.028512    2.622319
C       0.565375   -2.054913    1.091773
H       1.159488    2.154266    0.284129
H      -0.389632    2.363525   -0.555893
H      -0.353260    2.061860    1.191883
H      -0.997163   -0.006813   -0.108273
H       1.567214    0.352034   -1.513434
H       0.714101   -0.956861   -3.123548
H       1.734929   -0.203418    1.236899
H       0.353576    0.152995    3.282467
H      -1.102667   -0.346432    2.398854
H       1.221428   -2.200011    3.195349
H      -0.473789   -2.685836    3.013936
H      -0.315024   -2.369665    0.524861
H       1.427922   -2.621808    0.733757
