21

C       0.140378    1.516715    0.097268
C      -0.000206    0.015105    0.002757
C      -0.715520   -0.762772    1.050601
N       0.755844   -0.795487    0.988790
C       1.358473   -1.951072    0.286288
C       0.974562   -1.861772   -1.183182
N      -0.476943   -2.002187   -1.423790
C       0.131326   -0.649424   -1.371535
C       0.145791    0.193259   -2.622255
H       1.081580    1.864462   -0.342520
H      -0.682586    2.029239   -0.413383
H       0.133893    1.822373    1.146104
H      -1.108562   -0.246098    1.923838
H      -1.271855   -1.637828    0.733472
H       2.447253   -1.876773    0.388976
H       1.040753   -2.892444    0.746419
H       1.670268   -2.204518   -1.945045
H      -0.634690   -2.255581   -2.397380
H      -0.829960    0.660249   -2.798655
H       0.890197    0.993000   -2.567168
H       0.384472   -0.422203   -3.495705
