15

C       0.026899    1.391403   -0.007347
N       0.056714   -0.059210    0.006823
C      -1.069835   -0.648764   -0.002859
N      -2.381362   -0.186288   -0.025248
N      -3.327727   -1.178694   -0.028046
C      -2.631204   -2.281915   -0.007897
N      -1.274547   -2.026381    0.007613
C      -3.170584   -3.586599   -0.002357
C      -3.585177   -4.715566    0.003342
H       1.050804    1.773658    0.003638
H      -0.462645    1.802783   -0.906776
H      -0.488038    1.819644    0.869740
H      -2.677687    0.771885   -0.037949
H      -0.528843   -2.699091    0.025388
H      -3.968336   -5.706414    0.008413
