19

O      -0.269146    0.023796    0.504909
C      -0.017350    1.164769    0.159501
C      -1.138140    2.176157   -0.043225
C      -1.613287    2.258302   -1.506576
C      -0.459658    2.564376   -2.486276
C       0.327814    3.781218   -2.099377
C       1.355010    3.806714   -1.234467
C       1.954505    2.672584   -0.539278
C       1.404883    1.560168   -0.010041
H      -1.968500    1.853093    0.589924
H      -0.810920    3.166754    0.286940
H      -2.080697    1.310831   -1.796197
H      -2.386445    3.031853   -1.579373
H       0.208614    1.694736   -2.513887
H      -0.868791    2.690134   -3.494138
H       0.039521    4.720783   -2.566220
H       1.874937    4.752109   -1.090982
H       3.038271    2.748434   -0.444089
H       2.074689    0.803346    0.390875
