18

C      -0.098609    1.551327    0.017344
C       0.109560    0.041097    0.021741
C       0.896093   -0.487982   -1.239548
N       1.806296   -1.424737   -0.597265
C       2.978991   -2.101998   -0.880024
N       3.658876   -2.481904    0.138570
C       2.930844   -1.991882    1.332291
C       1.769121   -1.198495    0.779531
N       0.882268   -0.397416    1.213193
H       0.864140    2.072373   -0.004734
H      -0.681756    1.864192   -0.855586
H      -0.631666    1.862640    0.919189
H      -0.871752   -0.450368    0.064150
H       0.246632   -0.976214   -1.970289
H       1.442311    0.321646   -1.742187
H       3.260124   -2.312313   -1.906476
H       2.592434   -2.840525    1.938359
H       3.586383   -1.386265    1.965147
