20

C       0.076963    1.540576    0.031892
C       0.001061    0.030897   -0.020382
C      -0.875189   -0.707819    0.954421
N       0.558826   -0.693992    1.144441
C       1.291436   -1.961515    0.952019
C       1.753179   -2.214342   -0.484224
C       0.587524   -2.017287   -1.466706
C       0.120389   -0.570677   -1.395010
O      -0.076429    0.097068   -2.386915
H       1.042479    1.894751   -0.342274
H      -0.702248    1.981208   -0.594599
H      -0.042655    1.885823    1.061102
H      -1.461914   -0.126384    1.662489
H      -1.349910   -1.632190    0.627899
H       2.158819   -1.941082    1.620952
H       0.654740   -2.791447    1.284620
H       2.561569   -1.518552   -0.740814
H       2.169660   -3.223973   -0.566470
H       0.868044   -2.222500   -2.502265
H      -0.237089   -2.694209   -1.207032
