23

C      -0.021928    1.610247   -0.053500
C       0.038687    0.081616    0.013678
C       0.733103   -0.535668   -1.195270
O       2.101096   -0.112961   -1.172632
C       2.798657   -0.552369   -2.306431
O       2.831237   -1.949846   -2.418068
C       1.513816   -2.478632   -2.511713
C       0.673823   -2.077069   -1.287085
C       1.166196   -2.785464   -0.018574
H       0.983836    2.030059   -0.135153
H      -0.598136    1.946038   -0.923140
H      -0.495651    2.025628    0.840873
H       0.568049   -0.228298    0.920947
H      -0.973884   -0.336264    0.077430
H       0.264998   -0.131165   -2.112490
H       2.340653   -0.117130   -3.216834
H       3.831441   -0.213098   -2.202821
H       1.032191   -2.114251   -3.435367
H       1.620836   -3.564362   -2.588342
H      -0.367991   -2.363738   -1.484499
H       2.185551   -2.475871    0.223864
H       0.526689   -2.567623    0.840955
H       1.167561   -3.870927   -0.162488
