15

O      -0.014119   -0.038794   -0.229936
C      -0.014254    1.162552   -0.040376
N      -1.168179    1.878567    0.193623
C      -1.219450    3.324283    0.058076
C      -0.027478    3.943192    0.817779
C       1.257613    3.236224    0.424322
C       1.236926    1.966940    0.018252
C       0.044439    5.385404    0.574522
N       0.095063    6.522722    0.378823
H      -2.016851    1.355776    0.031100
H      -1.171272    3.644395   -0.992986
H      -2.160091    3.690181    0.475782
H      -0.185570    3.800305    1.897306
H       2.185948    3.790359    0.518341
H       2.140846    1.426823   -0.237255
