22

C      -0.186530    1.561669    0.139686
C      -0.087243    0.045617    0.048874
C       0.752464   -0.583621   -1.124717
C       1.621344   -1.285630   -0.074059
C       2.297336   -2.620740   -0.226775
O       2.975008   -3.036718    0.956242
N       2.217914   -0.195797    0.741035
C       0.838529   -0.687031    1.043925
C       0.474010   -1.200805    2.403458
H       0.812466    2.004843    0.164946
H      -0.726280    1.973377   -0.720271
H      -0.721793    1.870973    1.044741
H      -1.084781   -0.406545    0.072131
H       0.168135   -1.270013   -1.743373
H       1.288451    0.121239   -1.766641
H       1.547318   -3.390844   -0.444699
H       2.985021   -2.594476   -1.086111
H       3.871855   -2.692530    0.921067
H       2.817219   -0.660219    1.425740
H       0.398556   -0.383287    3.130957
H      -0.495284   -1.711323    2.379430
H       1.221726   -1.914755    2.760441
