18

C      -0.009748    1.497802    0.009392
C      -0.005981    0.044703   -0.084905
C       0.010671   -1.156566   -0.168169
C      -0.008672   -2.611857   -0.253453
C      -1.350731   -3.217288    0.239313
C      -1.370080   -4.672578    0.154007
C      -1.353450   -5.873844    0.070690
C      -1.349775   -7.326942   -0.023643
H       0.808954    1.859161    0.641679
H       0.104027    1.962512   -0.976374
H      -0.946960    1.866309    0.441270
H       0.164719   -2.934532   -1.286913
H       0.808856   -3.038439    0.339758
H      -1.524115   -2.894625    1.272779
H      -2.168259   -2.790696   -0.353890
H      -2.165460   -7.687978   -0.660000
H      -0.410572   -7.695790   -0.450878
H      -1.468606   -7.791632    0.961535
