25

C      -0.155622    1.728913    0.227417
C      -0.095973    0.197864    0.294620
C      -1.439866   -0.464408    0.003736
C      -1.953580   -0.629131   -1.456714
C      -1.048067   -0.308388   -2.634057
O      -2.108683   -2.055732   -1.278619
C      -1.588522   -2.016900    0.081612
C      -0.311027   -2.844810    0.180161
C      -2.641767   -2.505813    1.069972
H       0.817520    2.172996    0.458595
H      -0.450565    2.077644   -0.767553
H      -0.882876    2.126259    0.944273
H       0.675303   -0.168379   -0.391197
H       0.229343   -0.101973    1.299424
H      -2.199610    0.018883    0.627303
H      -2.932467   -0.157458   -1.621455
H      -0.046622   -0.728504   -2.506135
H      -1.476999   -0.740519   -3.543905
H      -0.958706    0.772860   -2.783822
H       0.440674   -2.512870   -0.539461
H       0.121803   -2.792369    1.184903
H      -0.540785   -3.893310   -0.035651
H      -2.861860   -3.565510    0.903446
H      -2.293135   -2.387560    2.102225
H      -3.571970   -1.942638    0.952277
