17

C      -0.184366    1.549391    0.003030
C       0.012547    0.041408   -0.069918
C       1.234576   -0.547906   -0.846362
O       1.554447   -0.565240   -1.996481
C       1.750808   -1.230775    0.420692
O       1.885199   -0.153543    1.376746
C       0.576537   -0.698535    1.162765
C      -0.153997   -1.246462    2.347481
O      -0.728862   -0.210532    3.128044
H       0.704742    2.030498    0.418166
H      -0.360757    1.958316   -0.996016
H      -1.042283    1.797346    0.634587
H      -0.886503   -0.458536   -0.453749
H       2.362317   -2.113433    0.569431
H      -0.987808   -1.872080    2.013058
H       0.530289   -1.874590    2.935978
H      -0.006047    0.328474    3.468107
