18

O       0.126623    1.267821    0.279197
C      -0.069569   -0.122775    0.188318
C      -1.546073   -0.509685   -0.095632
C      -1.717883   -2.061761   -0.097633
C      -2.527777   -2.331581    1.191610
O      -2.377836   -1.168295    1.993221
C      -2.443334   -0.076756    1.101479
C      -1.957804    0.121771   -1.346728
N      -2.243866    0.659842   -2.330024
H      -0.020906    1.652316   -0.592985
H       0.576721   -0.583687   -0.572632
H       0.195333   -0.541754    1.163865
H      -2.232553   -2.418290   -0.990946
H      -0.735814   -2.542053   -0.066185
H      -3.589186   -2.496224    0.951213
H      -2.165054   -3.186162    1.766475
H      -2.057831    0.815666    1.596544
H      -3.474684    0.106700    0.764464
