20

C      -0.031218    1.474467    0.088532
C       0.006430   -0.054530    0.025146
C       1.080352   -0.713111   -0.913420
C       1.413868   -1.729483    0.209159
C       2.870876   -2.051373    0.464304
O       2.935595   -2.856984    1.630290
C       0.681520   -0.812985    1.223118
C      -1.327943   -0.582942   -0.253036
N      -2.384690   -0.997597   -0.475094
H       0.971109    1.860318    0.296519
H      -0.376165    1.900569   -0.858461
H      -0.703853    1.818201    0.880047
H       0.731634   -1.100980   -1.871535
H       1.900242   -0.009674   -1.090312
H       0.860891   -2.662820    0.069290
H       3.295606   -2.570579   -0.410777
H       3.436914   -1.112866    0.594489
H       3.857685   -3.065658    1.806053
H       1.373979   -0.147171    1.747074
H       0.019927   -1.281891    1.951547
