16

C       0.034821   -1.201500    0.071183
C       0.000011    0.001760    0.065440
C      -0.053200    1.441733    0.033024
C       0.484675    2.171285    1.227514
N       1.225995    2.194750   -0.035030
C      -1.173062    2.058953   -0.763051
C      -1.724137    1.394880   -1.967613
N      -2.524307    1.485832   -0.731178
H       0.073160   -2.262929    0.086614
H       0.025127    3.115529    1.507050
H       0.860962    1.576591    2.054400
H       2.005316    1.542481    0.001557
H      -1.145750    3.145324   -0.732638
H      -2.087292    1.997322   -2.795027
H      -1.311925    0.429198   -2.245541
H      -2.497332    0.587021   -0.252194
