18

C       0.209944    1.515763   -0.186853
C       0.024053    0.012938   -0.035087
O      -1.349372   -0.330837   -0.005587
C       0.885572   -0.921071   -0.946078
N       1.454610   -1.647725    0.234922
C       2.778520   -1.113306    0.680436
C       2.062721   -0.143216    1.642075
O       2.405931    0.678531    2.438115
C       0.713275   -0.701751    1.162809
H       1.263766    1.805284   -0.158237
H      -0.199331    1.850058   -1.148735
H      -0.314344    2.046105    0.613286
H      -1.775135    0.070429   -0.771658
H       0.281436   -1.579485   -1.576067
H       1.636883   -0.417661   -1.566268
H       3.384568   -1.868626    1.193299
H       3.392561   -0.647965   -0.099678
H       0.034898   -1.111161    1.914967
