20

C       0.147959    0.857043   -0.120606
O       0.052107   -0.467759    0.367473
C       0.732814   -1.414141   -0.401145
C       0.044384   -1.762397   -1.722209
O      -0.990637   -1.248493   -2.072739
C       0.761112   -2.771061   -2.623720
N       1.599852   -3.700155   -1.881513
C       0.988486   -4.977559   -1.515739
C       2.013488   -4.904324   -2.592687
H       1.199661    1.175705   -0.201567
H      -0.338487    0.969766   -1.095598
H      -0.356166    1.497883    0.606518
H       1.771856   -1.111077   -0.623042
H       0.810444   -2.330738    0.194014
H      -0.001954   -3.255681   -3.254713
H       1.408217   -2.187813   -3.294518
H       1.247508   -5.360602   -0.533204
H      -0.041860   -5.154285   -1.819659
H       1.667156   -5.033697   -3.616629
H       3.032072   -5.233690   -2.409763
