22

C       0.071261    1.496796   -0.145372
C      -0.052367   -0.016424    0.035072
O       0.714720   -0.468291    1.144979
C      -1.519963   -0.535199    0.113871
C      -2.272587    0.025282    1.322432
O      -2.241110   -0.097005   -1.042797
C      -1.500171   -2.065953    0.191311
C      -2.708135   -2.857585   -0.125494
N      -1.535652   -2.892454   -1.026428
H       1.116803    1.763488   -0.320249
H      -0.530963    1.853085   -0.984692
H      -0.267838    2.030009    0.750377
H       0.404965   -0.515623   -0.831869
H       0.510880    0.101218    1.894518
H      -2.294240    1.117944    1.310274
H      -3.304430   -0.333199    1.311379
H      -1.810228   -0.313162    2.254532
H      -1.650704   -0.135518   -1.803224
H      -0.811735   -2.439411    0.943150
H      -2.911515   -3.783607    0.404540
H      -3.585883   -2.316725   -0.467839
H      -1.754742   -2.296810   -1.823131
