15

C      -0.050250    1.370832   -0.125929
N       0.078430   -0.070352   -0.025573
C       0.622303   -0.561628    0.995295
O       0.684471   -1.993186    0.965212
C       1.240847   -2.623183    1.995833
N       1.240177   -3.955774    1.852398
N       1.748237   -2.054285    3.057711
C       1.660548   -0.692682    3.029928
N       1.150313    0.058214    2.103220
H       0.456577    1.710527   -1.036804
H      -1.110029    1.625893   -0.243266
H       0.355875    1.914094    0.733764
H       0.846233   -4.377538    1.030043
H       1.640642   -4.517390    2.582653
H       2.075518   -0.190172    3.902314
