19

C      -0.187363    1.535748   -0.038108
C       0.011474    0.027820    0.002105
C       1.174464   -0.605218   -0.804298
C       2.140062   -0.222063    0.333564
C       0.871332   -0.574096    1.197781
C       0.690591   -0.230549    2.652477
C       0.751965   -2.042930    0.802285
O       0.524972   -3.024296    1.444236
O       0.964232   -2.030219   -0.556231
H       0.733644    2.101872    0.122647
H      -0.597157    1.837784   -1.007894
H      -0.903926    1.844209    0.729987
H      -0.946578   -0.476030   -0.163807
H       1.358859   -0.446589   -1.864643
H       3.030767   -0.842684    0.454850
H       2.402876    0.834797    0.367358
H       0.752418    0.849008    2.818945
H      -0.281069   -0.581170    3.014274
H       1.459742   -0.715334    3.261736
