17

O      -0.036904    1.416603    0.126918
C      -0.059172    0.002670    0.098629
C      -1.502471   -0.543317   -0.019741
C      -1.553267   -2.087551    0.254647
N      -1.961321   -2.233474    1.659193
C      -2.341495   -1.075762    2.038126
N      -2.316898   -0.047388    1.107995
C      -2.054909   -0.144444   -1.312912
C      -2.442179    0.208419   -2.395713
H      -0.371733    1.723804   -0.724712
H       0.551543   -0.405800   -0.719279
H       0.365309   -0.334188    1.049506
H      -2.283818   -2.576307   -0.398628
H      -0.581580   -2.560546    0.076063
H      -2.722521   -0.869887    3.034661
H      -2.094706    0.891131    1.415898
H      -2.816895    0.498394   -3.346589
