17

C      -0.019405    1.673262   -0.040086
C       0.005251    0.136292    0.046969
C      -1.324679   -0.460687    0.055189
C      -2.427940   -0.944826    0.050732
C      -3.754043   -1.490733    0.072898
O      -4.249403   -2.126691   -1.113710
C      -4.022481   -2.956825    0.029625
C      -2.968363   -3.929683   -0.039989
C      -2.112659   -4.772695   -0.070720
H       1.000246    2.069283   -0.043995
H      -0.521448    2.002627   -0.953602
H      -0.552771    2.102764    0.812182
H       0.573612   -0.273053   -0.797849
H       0.544852   -0.174198    0.950983
H      -4.501936   -0.884128    0.584632
H      -4.936321   -3.300786    0.514846
H      -1.348978   -5.509916   -0.106639
