18

C      -0.137983    1.376627    0.035778
O       0.028134   -0.030714   -0.029784
C       0.691005   -0.556366   -1.172995
C       2.167952   -0.130981   -1.237084
C       0.569514   -2.084313   -1.022360
N      -0.830013   -2.477102   -0.984269
C       0.003681   -0.118154   -2.415482
N      -0.486782    0.274242   -3.385318
H       0.819367    1.902067    0.145618
H      -0.660050    1.764426   -0.847910
H      -0.745589    1.568786    0.922364
H       2.660012   -0.407450   -0.300788
H       2.671703   -0.632230   -2.067656
H       2.269533    0.945665   -1.386170
H       1.049760   -2.557603   -1.884833
H       1.154821   -2.349947   -0.125739
H      -0.913869   -3.485605   -0.925583
H      -1.265590   -2.082514   -0.157640
