15

C       0.099577    1.499519   -0.137637
C      -0.180033    0.016548   -0.371379
C      -1.525535   -0.420218    0.159208
O      -2.358815    0.308427    0.614770
C      -1.795362   -1.983158    0.155457
C      -3.220155   -2.278948    0.314058
N      -4.340220   -2.521477    0.445748
C      -1.228227   -2.663773   -1.010736
N      -0.753424   -3.171904   -1.932613
H       1.073534    1.768924   -0.553083
H      -0.664471    2.118766   -0.612816
H       0.099939    1.736581    0.929269
H      -0.154088   -0.233030   -1.440580
H       0.591789   -0.621539    0.081033
H      -1.267935   -2.356408    1.046232
