23

C       0.082996    1.252087    0.729259
C       0.130110   -0.128238    0.055483
C       1.105131   -1.066096    0.782439
C      -1.259260   -0.738225    0.001923
C      -2.310431   -0.409891   -1.031077
C      -1.896372    0.214827   -2.367200
C      -1.018050   -0.841634   -3.006152
C      -0.937084   -1.943455   -2.255520
C      -1.704048   -1.811677   -0.984063
H       1.073664    1.718997    0.741610
H      -0.603633    1.927813    0.209532
H      -0.256638    1.169827    1.768885
H       0.496218    0.004951   -0.968434
H       1.169910   -2.035694    0.278952
H       2.111824   -0.636522    0.823241
H       0.779882   -1.247048    1.814197
H      -1.680457   -0.887234    0.996436
H      -3.321272   -0.233858   -0.681266
H      -2.774077    0.436542   -2.988798
H      -1.364654    1.168084   -2.243900
H      -0.504564   -0.682074   -3.947946
H      -0.369760   -2.832332   -2.508527
H      -2.248124   -2.667362   -0.597269
