13

C       0.001391    1.535937    0.101314
C      -0.007504    0.056085   -0.067920
C       0.055868   -0.791925   -1.168908
N       0.148261   -0.889887   -2.532705
N       0.156911   -2.070459   -2.899471
O       0.057742   -2.982991   -1.639368
C       0.002988   -2.102123   -0.660322
N      -0.088129   -2.155343    0.658423
N      -0.090689   -0.814024    0.968738
H       0.919682    1.971074   -0.305269
H      -0.840504    1.995261   -0.426016
H      -0.067286    1.811947    1.156975
H      -0.153726   -0.563229    1.942711
