18

C       0.167973    1.477904    0.097678
C      -0.031935   -0.032922   -0.019639
C       0.682006   -0.623660   -1.299433
C       1.901826   -1.259585   -0.697511
C       1.753355   -1.263913    0.646051
N       0.567231   -0.753647    1.159601
O       2.751894   -1.879720    1.293891
C       3.612423   -2.301919    0.287151
C       3.130506   -1.957146   -0.940132
H       1.235205    1.725249    0.100288
H      -0.300154    1.994613   -0.746475
H      -0.281453    1.869067    1.017336
H      -1.102175   -0.255938   -0.045537
H       0.033262   -1.353081   -1.800513
H       0.885145    0.171788   -2.026198
H       0.672576   -0.154256    1.971955
H       4.501842   -2.801700    0.629255
H       3.611575   -2.171536   -1.882343
