12

C       0.013411    1.452024   -0.043587
O       0.007132    0.015046   -0.011716
C       0.584950   -0.603828   -1.025529
C       0.710663   -1.955434   -1.229929
O       1.372791   -2.118071   -2.397891
N       1.643943   -0.849207   -2.894974
N       1.182247    0.017591   -2.090591
C       0.299291   -3.075038   -0.487356
N      -0.048815   -3.983770    0.140573
H       1.038308    1.832301   -0.048425
H      -0.515359    1.819598   -0.926953
H      -0.502546    1.760838    0.864426
