16

O       0.133193    0.831439    0.684294
C      -0.154012    0.147479   -0.520690
C      -1.478518   -0.627991   -0.467203
O      -1.764844   -1.240587   -1.711439
C      -1.490531   -1.635239    0.703820
C      -2.837133   -2.312570    0.798114
O      -3.775470   -1.884718    1.421033
C      -2.966084   -3.569129    0.026375
N      -3.037021   -4.562669   -0.561198
H      -0.452901    1.592646    0.746317
H      -0.184279    0.819677   -1.389357
H       0.673934   -0.556282   -0.676631
H      -2.298650    0.083788   -0.308584
H      -1.079256   -1.890652   -1.905513
H      -0.697611   -2.378011    0.555160
H      -1.301848   -1.092968    1.633175
