20

C       0.058315    1.496876    0.141560
C       0.358700    0.002970   -0.000562
C       0.472875   -0.434391   -1.460961
N       0.702232   -1.879599   -1.537320
C       1.208512   -2.558064   -2.692908
C       2.235381   -1.721904   -3.478648
C       3.067820   -1.677525   -2.166741
O       4.179354   -1.311324   -1.915183
C       2.028831   -2.476826   -1.401822
H       0.845709    2.107729   -0.313718
H      -0.888154    1.761464   -0.343192
H      -0.016679    1.784742    1.194197
H       1.296489   -0.237724    0.515401
H      -0.423706   -0.592458    0.482988
H      -0.471300   -0.238831   -1.984050
H       1.247110    0.166395   -1.961292
H       0.677430   -3.425161   -3.068941
H       2.781671   -2.294742   -4.234273
H       1.894737   -0.782652   -3.920034
H       2.204891   -3.197778   -0.611119
