13

N       0.005424    1.388054    0.129052
C      -0.079461    0.025138    0.044121
C      -1.221765   -0.720806    0.024236
C      -1.112491   -2.138832   -0.006860
F      -2.236783   -2.860128   -0.020174
C       0.085529   -2.748121   -0.021107
O       1.229641   -2.007700   -0.014356
C       1.234557   -0.642596    0.008165
O       2.286726   -0.046236   -0.010364
H       0.920668    1.760110   -0.080478
H      -0.785466    1.942229   -0.153795
H      -2.207344   -0.269068    0.039049
H       0.259847   -3.812838   -0.041442
