18

C       0.403397    1.428003   -0.054943
O       0.482251    0.023263   -0.113545
C       0.199449   -0.593297    1.121253
C       0.382893   -2.085493    1.000243
C      -0.259230   -2.954615    1.884493
N      -0.120142   -4.281064    1.872120
C       0.682810   -4.800657    0.939234
C       1.362505   -4.031149   -0.000246
C       1.211582   -2.649442    0.032260
H       1.118286    1.846713    0.670904
H       0.643608    1.809371   -1.049970
H      -0.606362    1.768456    0.222797
H       0.869510   -0.193284    1.904255
H      -0.829817   -0.364245    1.446374
H      -0.927148   -2.553538    2.646199
H       0.782582   -5.883554    0.941722
H       1.995583   -4.506458   -0.741660
H       1.714244   -2.007942   -0.681430
