21

C      -0.128178    1.555343    0.024228
C      -0.012561    0.033432    0.011721
O       0.715389   -0.432586   -1.121953
C       0.603034   -0.511270    1.317370
O      -0.128336   -0.071270    2.457576
C       0.751370   -2.034142    1.298909
C       1.788181   -2.546495    2.295767
C       1.528780   -3.914041    2.896355
O       2.776178   -1.903287    2.565641
H       0.867400    2.012405    0.093552
H      -0.606676    1.909769   -0.892448
H      -0.704136    1.892934    0.888415
H      -1.014219   -0.405941   -0.106656
H       1.558081    0.035573   -1.138171
H       1.603779   -0.080718    1.443046
H      -1.012047   -0.453140    2.404709
H      -0.219378   -2.519841    1.463742
H       1.085110   -2.343483    0.299776
H       1.297116   -4.644287    2.112832
H       2.393322   -4.243248    3.473915
H       0.650331   -3.863233    3.551098
