23

C       0.937986    1.544163    0.285686
C       0.159299    0.253708    0.000628
C       0.557192   -0.427272   -1.301891
C       0.283955    0.338451   -2.591058
C      -1.198436    0.633493   -2.849450
C       1.774315   -1.310196   -1.275875
C       0.395097   -1.948337   -1.399289
C      -0.149011   -2.731428   -0.329802
C      -0.615420   -3.399879    0.556109
H       2.017468    1.359240    0.298708
H       0.743254    2.316345   -0.465504
H       0.657100    1.957338    1.259348
H       0.309811   -0.451125    0.824235
H      -0.916339    0.468171   -0.010715
H       0.849653    1.278693   -2.579742
H       0.686226   -0.239396   -3.432399
H      -1.332030    1.131312   -3.814791
H      -1.787836   -0.289420   -2.862082
H      -1.623005    1.287359   -2.081609
H       2.417826   -1.348212   -2.148719
H       2.288219   -1.444198   -0.330255
H       0.140991   -2.316267   -2.390233
H      -1.025721   -3.988584    1.338298
