15

C       0.037490    1.531808    0.039262
C      -0.033797    0.045554    0.023042
C      -1.116626   -0.764084   -0.078946
C      -0.661283   -2.206223   -0.047790
C       0.862488   -2.089774    0.089084
O       1.689783   -2.961573    0.157198
N       1.121853   -0.719582    0.121286
C      -2.452964   -0.333761   -0.195326
N      -3.559570    0.003130   -0.291756
H       0.650390    1.901900   -0.790730
H      -0.962065    1.960120   -0.047035
H       0.493301    1.890151    0.969505
H      -1.065941   -2.775521    0.795612
H      -0.909043   -2.763544   -0.957331
H       2.055446   -0.350107    0.206439
