20

C       0.454822    1.730224   -0.135190
C       0.141784    0.275034    0.095327
O       1.268736   -0.648918    0.017872
C       0.630224   -0.473449    1.241314
C       1.237100   -0.144837    2.616263
C      -0.199134   -0.354081    3.185994
C       0.079122   -1.535112    2.206115
N       1.515895   -1.642603    2.709690
C       1.754109   -2.227415    4.025114
H       1.349270    2.027933    0.417707
H       0.627405    1.923133   -1.199065
H      -0.382646    2.358551    0.187716
H      -0.747718   -0.099093   -0.414688
H       1.985887    0.600904    2.885160
H      -0.269153   -0.606506    4.241904
H      -0.968948    0.369780    2.903885
H      -0.528472   -2.415016    1.992389
H       1.678329   -3.315932    3.933519
H       2.781881   -1.993344    4.321742
H       1.088199   -1.911844    4.843428
