17

C      -0.002193    1.411476    0.213331
C       0.013836   -0.052326   -0.062487
N      -1.070477   -0.782759   -0.251924
H      -1.900287   -0.674739    0.392508
C      -0.709216   -2.211083   -0.111076
C       0.825985   -2.222890   -0.209016
N       1.122651   -0.784146   -0.082611
C      -1.276057   -2.617305    1.314603
O      -2.202076   -1.843533    1.677066
O      -0.736980   -3.582315    1.850490
H       0.966730    1.870203    0.006579
H      -0.769889    1.899949   -0.388924
H      -0.245507    1.573578    1.269460
H      -1.187832   -2.810160   -0.886939
H       1.248361   -2.803458    0.617427
H       1.208821   -2.601018   -1.161862
H       2.047912   -0.393155   -0.020947
