16

O       0.342982   -0.029484   -0.082268
C       0.305547    1.169903   -0.009893
C       1.355427    2.096849   -0.603875
N       0.769570    3.395303   -0.917833
C       1.726659    4.447605   -1.187657
C       2.407720    4.364295   -2.548487
O       2.081412    3.587490   -3.415693
C       3.547866    5.351195   -2.831144
O       3.949636    6.137883   -2.014696
H      -0.510136    1.709234    0.522716
H       2.110579    2.243960    0.183090
H       1.852731    1.583782   -1.439163
H       0.157841    3.297835   -1.723021
H       1.234648    5.430788   -1.140899
H       2.493497    4.479680   -0.405204
H       3.962685    5.260050   -3.857028
