16

N       0.039506    1.345484    0.085873
C      -0.056657   -0.020453    0.062857
N      -1.194160   -0.603607    0.029152
C      -1.221440   -2.058300    0.033737
C       0.109744   -2.686320   -0.428699
C       1.242833   -1.988170    0.305839
O       1.183266   -0.569461    0.097351
C      -1.583168   -2.561643    1.375992
N      -1.842330   -2.968619    2.426371
H       0.919482    1.735784   -0.209828
H      -0.791364    1.832222   -0.208578
H      -2.023193   -2.380531   -0.642007
H       0.135258   -3.762003   -0.235323
H       0.211668   -2.528032   -1.506977
H       1.188718   -2.187905    1.383052
H       2.225041   -2.296733   -0.057243
