19

O      -0.052559    1.415926   -0.057706
C       0.011276    0.007494    0.008922
C       0.052089   -0.631939    1.426107
C      -1.484756   -0.228960    1.518882
C      -1.412507   -0.595480    0.012198
C      -2.048063   -0.919759   -1.349106
O      -1.219140   -2.132399   -1.400526
C      -1.127480   -2.079284    0.057373
C       0.112598   -2.129020    0.989234
H       0.827084    1.760990    0.123489
H       0.717545   -0.392654   -0.729385
H       0.758096   -0.293879    2.186707
H      -2.145700   -0.831947    2.146472
H      -1.592107    0.831131    1.738610
H      -3.114670   -1.177100   -1.324030
H      -1.837775   -0.241805   -2.180336
H      -1.953988   -2.673779    0.470364
H       1.052918   -2.356580    0.478965
H      -0.017396   -2.844268    1.804883
