19

O      -0.107112    1.437362   -0.319082
C       0.034419    0.072011   -0.122435
C      -0.026736   -0.473536    1.335110
O      -1.473755   -0.094612    1.349895
C      -1.254387   -0.786380    0.045897
C      -0.432879   -1.856560    0.796493
C       0.452353   -2.925236    0.111744
C      -0.518775   -4.010108    0.659905
C      -1.128723   -2.953195    1.626598
H      -0.813352    1.702368    0.289051
H       0.821352   -0.301207   -0.779937
H       0.565554   -0.208672    2.212637
H      -2.119284   -0.895698   -0.610688
H       0.574848   -2.862072   -0.972510
H       1.445643   -2.987647    0.566991
H      -1.235514   -4.339304   -0.096862
H      -0.065577   -4.893979    1.112921
H      -0.714508   -3.027784    2.636551
H      -2.216063   -2.901473    1.703988
