27

C       0.001000    1.592158    0.010661
C      -0.004284    0.061078    0.002532
C      -1.414942   -0.537406    0.012776
C      -1.429200   -2.069697    0.004711
C      -2.842385   -2.660687    0.014996
C      -2.846901   -4.183250    0.006864
O      -4.183356   -4.635737    0.017177
C      -4.297769   -6.042395    0.010700
C      -5.771777   -6.410871    0.022725
H       1.020750    1.989807    0.003053
H      -0.519739    1.994203   -0.865651
H      -0.502877    1.984762    0.900999
H       0.536400   -0.303035   -0.881307
H       0.553108   -0.312406    0.871965
H      -1.957090   -0.173828    0.896885
H      -1.973802   -0.164446   -0.856901
H      -0.886439   -2.431748   -0.879757
H      -0.869737   -2.441140    0.874760
H      -3.389170   -2.314855    0.900820
H      -3.405906   -2.305414   -0.856488
H      -2.320024   -4.563774   -0.886411
H      -2.303123   -4.573288    0.885793
H      -3.801861   -6.461599   -0.882148
H      -3.785028   -6.471126    0.889404
H      -5.893995   -7.498181    0.018053
H      -6.260098   -6.009866    0.915512
H      -6.276929   -6.000361   -0.856272
