14

O       0.016193    1.415580    0.006066
C      -0.007891    0.003806    0.002507
C      -1.435457   -0.477270    0.013094
C      -2.524173    0.389679    0.023664
C      -3.781780   -0.200480    0.032537
N      -3.962733   -1.524290    0.031218
C      -2.844004   -2.228045    0.020757
F      -2.999238   -3.539322    0.019259
N      -1.594888   -1.807098    0.011599
H       0.932934    1.703236   -0.000096
H       0.485463   -0.419931   -0.886101
H       0.500218   -0.424716    0.880416
H      -2.384666    1.460756    0.024816
H      -4.684794    0.405006    0.041067
