15

N       0.150511    1.427929   -0.008967
C       0.023734    0.023323   -0.020602
C      -1.050468   -0.835279   -0.016609
O      -2.354191   -0.452241    0.001576
C      -0.554660   -2.180134   -0.034658
C       0.832486   -2.089113   -0.049668
N       1.160138   -0.773175   -0.040748
C      -1.378042   -3.324398   -0.035996
C      -2.155222   -4.248016   -0.036324
H      -0.282382    1.833712    0.815091
H      -0.301971    1.848923   -0.814660
H      -2.890565   -1.254904    0.000123
H       1.576757   -2.867311   -0.065442
H       2.088711   -0.387615   -0.047592
H      -2.814026   -5.080225   -0.037679
