15

N       0.125366    1.358164   -0.511294
C      -0.064708    0.048627   -0.184189
N      -1.166120   -0.605483   -0.205148
C      -0.818016   -1.970906    0.078036
C       0.146521   -2.668033   -0.879624
C       0.707057   -1.971502    0.306347
O       1.085009   -0.618309    0.146563
C      -1.742632   -2.786141    0.898150
O      -1.549203   -3.944358    1.185574
H       0.921259    1.804673   -0.082024
H      -0.719851    1.907413   -0.526880
H       0.134567   -3.750906   -0.821415
H       0.270902   -2.228577   -1.863326
H       1.221535   -2.477076    1.112641
H      -2.640685   -2.231710    1.243843
