18

C      -0.083677    1.513154    0.032529
C      -0.017874    0.023737   -0.007665
C      -0.075885   -0.815134   -1.059593
C       0.050808   -2.165403   -0.370021
C       0.138296   -3.691733   -0.193994
N       0.252217   -3.228651    1.273569
C       1.072666   -2.009693    0.785689
C       0.140990   -0.870838    1.260596
C      -0.752572   -2.094869    0.954254
H       0.821134    1.941741    0.482749
H      -0.195719    1.936026   -0.969637
H      -0.926928    1.860164    0.643747
H      -0.183865   -0.574723   -2.107445
H      -0.758423   -4.287363   -0.392001
H       1.034837   -4.203675   -0.557612
H       2.163006   -2.046056    0.723235
H       0.208357   -0.384875    2.235601
H      -1.827867   -2.232295    1.091806
