17

O       0.079086   -0.061454    0.264399
C      -0.001762    1.093573   -0.058364
O      -1.181052    1.570756   -0.528748
C      -1.372781    2.972550   -0.797386
C      -0.132094    3.714082   -1.264510
C       0.925997    4.221135   -0.310764
C       0.981220    3.325622    0.926927
C       1.147220    2.073409   -0.014200
C       1.201600    3.030202   -1.220634
H      -2.141495    2.997025   -1.573690
H      -1.799089    3.433294    0.102286
H      -0.287199    4.351194   -2.129073
H       1.302306    5.234191   -0.379969
H       1.885057    3.475444    1.519386
H       0.117974    3.341323    1.600148
H       2.058524    1.512563    0.180813
H       1.851920    2.929050   -2.079517
