23

C      -0.150497    1.572133   -0.184017
C       0.042597    0.082109    0.003093
C       1.313600   -0.668499   -0.311503
C       2.628407    0.110425   -0.367732
C       3.116726    0.183721    1.100357
C       4.070017    1.335499    1.412079
C       1.824741    0.143125    1.973902
O       1.328408    1.430973    2.339393
C       0.802136   -0.603106    1.123139
H       0.737064    2.148934    0.071628
H      -0.422247    1.785985   -1.224659
H      -0.959239    1.936852    0.456934
H      -0.851221   -0.478987   -0.265502
H       1.241653   -1.587755   -0.882919
H       3.361819   -0.391126   -1.005856
H       2.490791    1.115448   -0.783362
H       3.633509   -0.762934    1.307809
H       3.590476    2.302256    1.228400
H       4.404690    1.313383    2.456834
H       4.966210    1.284771    0.785530
H       2.022186   -0.431116    2.891317
H       1.969463    1.833323    2.933867
H       0.322356   -1.461484    1.580301
