16

C      -0.003194    1.485016   -0.001399
C       0.006724    0.033128   -0.002068
C       0.014867   -1.177758   -0.002359
C       0.024313   -2.536731   -0.002554
C       0.025501   -3.749373    0.002199
C       0.040872   -5.178133   -0.003579
C      -0.411180   -5.956636    1.225669
C      -1.266328   -5.960930   -0.004228
H       1.015762    1.888804   -0.012061
H      -0.526850    1.881554   -0.878886
H      -0.505227    1.877696    0.890361
H       0.855075   -5.624367   -0.568067
H       0.148709   -6.851102    1.474081
H      -0.744686   -5.376713    2.077652
H      -2.183005   -5.383926    0.008995
H      -1.301326   -6.858399   -0.611336
