21

C      -0.020662    1.594554   -0.157381
C       0.116186    0.098981    0.010037
O       0.638260   -0.486068   -1.166312
C       1.258088   -1.702742   -0.766987
C       2.624820   -1.918826   -1.436480
C       3.531981   -2.417066   -0.294364
C       3.066835   -1.600178    0.926783
C       1.542219   -1.503409    0.756897
O       1.039622   -0.202556    1.037711
H       0.954791    2.027208   -0.391896
H      -0.717984    1.816539   -0.968920
H      -0.399791    2.039600    0.765826
H      -0.861652   -0.364859    0.247930
H       0.576717   -2.545914   -0.942954
H       2.584296   -2.603780   -2.286989
H       2.972218   -0.947710   -1.803727
H       3.363539   -3.487102   -0.118561
H       4.596828   -2.293961   -0.510201
H       3.367030   -2.039258    1.881396
H       3.471481   -0.583807    0.882529
H       1.013968   -2.249025    1.366090
