14

N       0.014123    1.440166    0.169138
C       0.022860    0.042774    0.040243
C      -1.059206   -0.806944    0.007951
N      -0.612779   -2.149456   -0.026715
C       0.732738   -2.097871   -0.029389
C       1.190270   -0.797497    0.015669
C       2.596248   -0.994130    0.018157
N       2.931826   -2.264877   -0.024675
O       1.701302   -3.006823   -0.056009
H       0.712382    1.887520   -0.411825
H      -0.891036    1.843804   -0.036233
H      -2.114871   -0.590643    0.016001
H      -1.195653   -2.966143   -0.049082
H       3.401178   -0.272411    0.052025
