19

C      -0.046798    1.428034   -0.478962
C       1.330195    1.640419    0.204124
O       1.233508    2.277794    1.470915
C       1.774499    1.415467    2.462139
C       1.427610   -0.023558    2.011361
C      -0.007399   -0.404699    2.301777
C      -0.778422   -0.409907    1.214037
C      -0.016238   -0.077737   -0.039093
C       1.449607    0.114988    0.468298
H      -0.854579    2.040045   -0.073379
H      -0.003067    1.555616   -1.564048
H       2.105041    2.118369   -0.407139
H       2.867209    1.536989    2.537352
H       1.330966    1.693398    3.423151
H       2.148796   -0.741756    2.415704
H      -0.354534   -0.597808    3.311882
H      -1.846462   -0.603108    1.210359
H      -0.184533   -0.791015   -0.850551
H       2.245363   -0.424215   -0.043683
