18

C       0.140330    1.354337   -0.067852
N       0.025518   -0.081270    0.025158
N       0.072991   -0.850599   -1.095312
C      -0.052625   -2.097248   -0.653244
C      -0.100014   -3.238973   -1.616982
O       0.689899   -4.304936   -1.097917
C      -0.151130   -2.151716    0.754721
C      -0.086151   -0.830134    1.154609
N      -0.190812   -0.220916    2.411243
H       1.174284    1.695185    0.071063
H      -0.194907    1.654532   -1.060736
H      -0.493283    1.820101    0.691694
H      -1.143412   -3.568400   -1.754351
H       0.265436   -2.888249   -2.592584
H       0.554422   -5.070204   -1.664548
H      -0.229892   -3.024994    1.380631
H      -0.294806   -0.911062    3.143377
H       0.599147    0.374432    2.635138
