17

C      -0.201152    1.676077    0.173434
C       0.041212    0.176400    0.054722
C      -1.268463   -0.604596   -0.241657
C      -1.795654   -0.301408   -1.569900
N      -2.177737   -0.058947   -2.633582
N       1.197881   -0.196269   -0.806952
C       1.826367   -1.052773    0.229776
C       0.795310   -0.504273    1.226158
O       0.623737   -0.558410    2.405144
H       0.742626    2.193517    0.357219
H      -0.632528    2.071258   -0.751705
H      -0.887447    1.890099    0.998906
H      -1.095516   -1.685180   -0.177717
H      -2.022449   -0.357715    0.513285
H       0.957273   -0.661858   -1.674492
H       1.734346   -2.139287    0.090067
H       2.874893   -0.818897    0.442424
