20

N      -0.074302   -1.230109   -0.005060
C      -0.042258   -0.074880    0.001762
C       0.001967    1.384986    0.010112
C       1.415831    1.971544   -0.000919
C       2.512514    1.238524    0.737475
C       2.496267    1.248667   -0.772511
C       1.489015    3.477431    0.008542
C       0.525891    4.376024   -0.728919
C       0.544336    4.365445    0.781806
H      -0.562198    1.736773   -0.862024
H      -0.544150    1.726144    0.897822
H       3.254919    1.838280    1.252546
H       2.268564    0.305594    1.233565
H       2.241507    0.322447   -1.275699
H       3.227538    1.855325   -1.295369
H       2.519825    3.822254   -0.001607
H       0.930264    5.237648   -1.248299
H      -0.331916    3.934488   -1.224207
H      -0.301160    3.916815    1.291690
H       0.961407    5.219783    1.303175
