18

N       0.265480   -1.213614    0.564796
C       0.142040   -0.093558    0.308599
C      -0.023731    1.332912    0.014284
C      -0.836618    1.986944    1.165347
O      -1.301329    3.270855    0.839168
C      -0.353712    4.316162    0.979068
C       0.619053    4.431535   -0.196141
C       1.579161    3.280780   -0.371272
C       1.323964    1.976282   -0.278068
H      -0.655229    1.405568   -0.883683
H      -1.723828    1.375823    1.354710
H      -0.223102    2.001818    2.077955
H      -0.941879    5.236596    1.051323
H       0.205658    4.194265    1.919387
H       0.032675    4.565780   -1.116683
H       1.189893    5.358179   -0.065289
H       2.597514    3.557648   -0.634343
H       2.134830    1.278144   -0.462631
