16

O       0.060358    0.315529   -1.191977
C      -0.000087    1.234248   -0.424099
C      -1.124530    1.903253    0.389272
C      -0.128827    3.081632    0.714379
C       0.042932    3.445824    2.104889
C       0.200332    3.731912    3.262215
C       1.001747    2.253904    0.046772
C       2.379723    1.945823    0.516207
N       2.159584    2.760950   -0.677159
H      -2.021119    2.170235   -0.173789
H      -1.411734    1.321020    1.268462
H      -0.356896    3.965549    0.111127
H       0.330434    3.994536    4.282982
H       2.752286    2.487691    1.380645
H       2.729679    0.922605    0.406949
H       2.288994    2.202706   -1.520663
