19

C       0.142393   -1.185836   -0.676117
C       0.043845   -0.074602   -0.230199
C      -0.049014    1.272695    0.322403
C       1.304897    1.962073    0.399081
O       1.768945    2.633092   -0.772353
C       1.477992    3.423777    0.389830
C       0.372033    4.419208    0.301573
C       0.174675    5.393256    1.441781
C       0.712376    5.880848    0.124033
H       0.222223   -2.164895   -1.078902
H      -0.733355    1.874400   -0.283752
H      -0.477041    1.225771    1.333106
H       2.068670    1.365474    0.901097
H       2.371479    3.809000    0.889343
H      -0.522778    4.073014   -0.203342
H      -0.841165    5.651892    1.717741
H       0.860221    5.335561    2.280992
H       1.762436    6.148527    0.070882
H       0.067879    6.477889   -0.510764
