12

F       0.008797   -0.021935    0.003387
C      -0.025038    1.315736    0.010462
C      -1.210221    1.974167    0.029700
N      -1.209115    3.339680    0.036442
C      -0.068215    4.165656    0.025144
O      -0.185867    5.379631    0.032741
C       1.172858    3.407054    0.004661
C       1.191040    2.046215   -0.002319
H      -2.165788    1.466951    0.040073
H      -2.085326    3.842740    0.050746
H       2.085007    3.990115   -0.004751
H       2.124830    1.493463   -0.017643
