19

C       0.531583    1.558251   -0.131766
C       0.048868    0.135751   -0.069249
C      -0.173761   -0.601797   -1.156229
C      -0.650192   -2.034236   -1.114430
C       0.384326   -2.985208   -0.511974
O       0.795522   -3.945147   -1.132829
C       0.843645   -2.743431    0.876682
C       0.583374   -1.688643    1.660583
C      -0.188209   -0.436123    1.321920
H       1.493626    1.672186    0.384745
H       0.656389    1.896854   -1.163391
H      -0.171403    2.237890    0.367553
H       0.015861   -0.179259   -2.138971
H      -1.563549   -2.110282   -0.504582
H      -0.887000   -2.407400   -2.111867
H       1.451149   -3.556728    1.265095
H       0.975333   -1.721741    2.675795
H       0.039695    0.324094    2.074748
H      -1.264762   -0.645528    1.442634
