13

O      -0.088549   -0.165831    0.002361
C      -0.069514    1.041766    0.005370
C       1.216360    1.880915   -0.002332
C       2.438684    1.097880   -0.015022
C       3.454757    0.459069   -0.025546
C      -1.286186    1.829351    0.016847
C      -2.310063    2.479994    0.026456
C      -3.454283    3.210162    0.037076
C      -4.472052    3.860048    0.046206
H       1.165989    2.551164   -0.871711
H       1.180211    2.544976    0.872512
H       4.350295   -0.111527   -0.034834
H      -5.368083    4.430901    0.054523
