23

C      -0.040347    1.521979   -0.046673
C       1.442635    2.016344   -0.031210
C       2.221783    0.825844    0.536549
C       3.723292    0.686780    0.303105
C       4.155809   -0.703404    0.811339
C       3.271144   -1.817871    0.233300
O       1.883423   -1.600047    0.460361
C       1.483262   -0.363332   -0.089916
C       0.010340   -0.027063    0.126403
H      -0.615687    1.980792    0.761785
H      -0.536364    1.804503   -0.979034
H       1.782851    2.235083   -1.050776
H       1.573845    2.932703    0.550660
H       2.034031    0.768231    1.619589
H       3.938205    0.775204   -0.771483
H       4.293747    1.475898    0.805981
H       5.201207   -0.908911    0.553526
H       4.082687   -0.728039    1.905607
H       3.457154   -1.909625   -0.851487
H       3.507672   -2.781236    0.694234
H       1.702902   -0.366210   -1.175865
H      -0.267450   -0.321482    1.143882
H      -0.655134   -0.555967   -0.560045
