19

C      -0.071857    1.523384   -0.020532
C       0.085814    0.020321    0.041517
C       1.435636   -0.651700   -0.165806
O       2.597856    0.114965   -0.270827
C       0.775124   -0.677758    1.189254
C       1.343069    0.067294    2.371474
O       0.130201   -1.898773    1.552488
C       0.924875   -2.964523    1.788980
O       0.492827   -4.018528    2.148804
H       0.863701    2.037279    0.212168
H      -0.378757    1.832744   -1.025280
H      -0.836499    1.873844    0.680007
H      -0.751583   -0.547420   -0.354904
H       1.442805   -1.583953   -0.730130
H       2.615075    0.518063   -1.145682
H       1.858697    0.972728    2.051259
H       0.545190    0.336583    3.070365
H       2.068268   -0.553598    2.907567
H       1.994631   -2.754836    1.603936
