16

C      -0.223332    1.278416    0.026656
N      -0.353784   -0.112489    0.435008
C       0.577790   -0.626103    1.105474
N       0.639113   -1.925665    1.593412
C       1.789490   -2.049131    2.316343
C       2.175933   -3.315294    3.017150
O       1.077173   -3.880898    3.712033
N       2.497549   -0.970132    2.318862
O       1.755844   -0.044342    1.523832
H       0.430340    1.377130   -0.850464
H      -1.209409    1.658335   -0.252797
H       0.186598    1.922905    0.815505
H      -0.120295   -2.583128    1.560500
H       2.477616   -4.064541    2.277294
H       3.039426   -3.108391    3.659762
H       0.875247   -3.314909    4.465099
