15

C      -0.118970    1.533630    0.156089
C       0.049299    0.028809   -0.028308
C       0.756904   -0.367016   -1.284845
N       1.210673    0.471014   -2.129181
C       1.842882   -0.017211   -3.270661
N       2.443040    0.753838   -4.068830
O       1.758334   -1.380764   -3.510542
N       1.320106   -2.276827   -2.465786
N       0.876077   -1.792763   -1.432429
H       0.850293    2.037432    0.177787
H      -0.694104    1.968761   -0.664899
H      -0.640841    1.740165    1.093859
H       0.602923   -0.421900    0.807302
H      -0.919320   -0.490329   -0.025376
H       2.857330    0.223553   -4.836047
