19

C       0.007093    1.417971   -0.006118
C      -0.052533   -0.089711   -0.028879
C      -0.908998   -0.853526    0.933282
O      -1.838898   -1.828316    0.551873
C       0.598722   -1.003613    1.031318
C       1.410568   -1.894883    0.073337
C       0.451974   -2.309472   -1.063993
C       0.559241   -0.785425   -1.272159
O       1.971708   -0.895789   -0.859273
H       1.005284    1.760954   -0.297843
H      -0.721184    1.858416   -0.697579
H      -0.205460    1.811909    0.992748
H      -1.296354   -0.209912    1.727802
H      -1.941377   -2.438124    1.290877
H       1.104728   -0.600401    1.902626
H       2.159024   -2.558600    0.505947
H       1.004773   -2.830426   -1.845744
H      -0.506006   -2.768286   -0.846109
H       0.419819   -0.293031   -2.234981
