18

C       0.006110    1.418984    0.040198
N      -0.080714   -0.018052    0.156851
C      -1.458555   -0.559574    0.146078
C      -1.277979   -1.867062    0.846856
C      -1.847880   -3.079347    1.149520
N      -0.931896   -3.721884    1.933635
N       0.198724   -3.007329    2.158080
C      -0.031510   -1.887421    1.493070
C       0.698445   -0.601709    1.268097
H       1.053795    1.723905   -0.053081
H      -0.518239    1.752381   -0.861807
H      -0.428464    1.959840    0.904346
H      -2.168668    0.093851    0.689717
H      -1.821884   -0.637163   -0.886430
H      -2.787064   -3.543516    0.893322
H      -1.004184   -4.646326    2.322640
H       1.749226   -0.723133    0.979641
H       0.678669    0.029248    2.177627
