21

C      -0.367871    1.431440   -0.318998
O      -0.477010    0.028799   -0.392211
C       0.698802   -0.587005   -0.885831
C       0.501486   -2.082043   -0.939544
C      -0.301096   -2.639824   -2.108172
C       1.173668   -2.838678   -2.085029
C       0.385178   -2.867944    0.342120
C       0.551445   -2.125908    1.653289
O       0.172649   -4.062996    0.315187
H       0.445576    1.745327    0.354319
H      -0.182428    1.876807   -1.309233
H      -1.315118    1.813570    0.068399
H       0.923355   -0.209787   -1.897202
H       1.559992   -0.320728   -0.249803
H      -0.923718   -3.496402   -1.880899
H      -0.724419   -1.914350   -2.793525
H       1.795391   -2.261261   -2.760622
H       1.541533   -3.827275   -1.837966
H      -0.125691   -1.268388    1.689377
H       0.359429   -2.809522    2.480488
H       1.572409   -1.734332    1.739022
