19

C       0.024446    1.573588    0.079061
C      -0.022368    0.040954    0.030254
O       0.727814   -0.526533    1.106382
C      -1.426417   -0.497523   -0.005569
C      -1.968664   -1.294368   -0.933469
C      -3.409688   -1.654082   -0.637178
C      -3.654806   -0.988934    0.712008
O      -2.825643   -1.471743    1.769757
C      -2.431983   -0.257801    1.085463
H       1.064832    1.908290    0.106122
H      -0.466280    2.011346   -0.796153
H      -0.475800    1.957496    0.975520
H       0.497678   -0.296105   -0.873321
H       0.222900   -0.411280    1.918846
H      -1.437212   -1.687097   -1.793960
H      -4.096792   -1.265721   -1.400224
H      -3.566288   -2.738517   -0.589556
H      -4.651802   -0.674247    1.008335
H      -2.430339    0.635379    1.704134
