14

C      -0.025326    1.431253   -0.009395
C       0.003848   -0.058949    0.008837
N      -0.075622   -0.766838   -1.123000
N      -0.011777   -2.041151   -0.634645
C      -0.020187   -3.353228   -1.026406
N       0.079413   -4.140089    0.015060
N       0.153564   -3.304412    1.103809
C       0.098635   -2.006097    0.723678
N       0.113210   -0.770295    1.182777
H       0.887590    1.837607    0.436768
H      -0.115319    1.792899   -1.034586
H      -0.868742    1.804945    0.579350
H      -0.097344   -3.692786   -2.044870
H       0.235277   -3.693443    2.025768
