15

C      -0.619315    0.417939    0.256711
N       0.666836   -0.160643   -0.072707
C       0.721446   -0.948991   -1.044133
O       1.913724   -1.496075   -1.409354
C       1.861613   -2.445623   -2.464394
C       1.359168   -3.749310   -2.035925
C       0.939329   -4.821229   -1.672031
C       0.462773   -6.035106   -1.266229
N       0.055383   -7.067634   -0.924844
H      -0.551644    1.509972    0.203161
H      -1.441183    0.087147   -0.398251
H      -0.876889    0.164572    1.290695
H      -0.129417   -1.253869   -1.672630
H       1.253203   -2.075168   -3.301863
H       2.889521   -2.546370   -2.825153
