19

C      -0.036512    1.407312   -0.058958
N      -0.064571   -0.044853   -0.057513
C       0.498510   -0.647083   -1.014631
N       0.584601   -2.011781   -1.201199
C       1.360530   -2.291666   -2.333965
C       1.653055   -3.687342   -2.757315
C       1.686793   -1.106536   -2.873138
C       2.439849   -0.691642   -4.079688
O       1.155705   -0.080606   -2.089750
H       0.957133    1.820250   -0.284691
H      -0.735860    1.831312   -0.794428
H      -0.339427    1.769884    0.927397
H       0.325057   -2.659881   -0.479412
H       2.206020   -4.235166   -1.984161
H       0.730803   -4.246119   -2.957320
H       2.256059   -3.695454   -3.667197
H       1.809375   -0.113119   -4.765555
H       3.297290   -0.060813   -3.816732
H       2.812866   -1.566685   -4.616680
