23

C      -0.195533    1.502504    0.339865
C       0.031392    0.009423    0.149200
C       1.105551   -0.548323   -0.842081
C       2.200990   -0.144427    0.185027
C       1.059173   -0.792240    1.020603
C       1.021152   -1.910584   -0.076687
C      -0.158043   -2.845624   -0.249625
C      -0.241423   -4.099809    0.588722
C      -1.251603   -3.001033    0.782505
H       0.725338    2.082424    0.438453
H      -0.753123    1.913068   -0.509777
H      -0.796626    1.684151    1.238254
H      -0.935774   -0.489271    0.056646
H       1.136536   -0.414287   -1.926220
H       3.140309   -0.702550    0.135634
H       2.391701    0.918610    0.330437
H       1.039960   -0.931936    2.104269
H       1.956628   -2.479466   -0.138792
H      -0.476417   -2.966286   -1.282859
H      -0.558681   -5.022219    0.114774
H       0.509109   -4.232607    1.361994
H      -1.181528   -2.408399    1.688360
H      -2.267584   -3.162500    0.438061
