14

O      -0.040236   -0.035764   -0.058095
C      -0.032037    1.170376   -0.022190
N      -1.111087    1.998956    0.139418
C      -0.843435    3.425952    0.082553
C       0.671073    3.478261   -0.034560
O       1.340092    2.880582    1.064997
C       1.183700    2.096565   -0.149020
C       2.358527    1.682964   -0.845453
C       3.333408    1.313062   -1.441344
H      -2.009765    1.613975    0.381318
H      -1.314436    3.897278   -0.789694
H      -1.186541    3.945402    0.985315
H       1.162580    4.326888   -0.499484
H       4.197586    0.981019   -1.962425
