16

N       0.202585    1.416310   -0.145806
C       0.008095   -0.022054   -0.096018
C      -1.418902   -0.511336    0.007186
N      -2.396760    0.335060    0.046825
C      -3.678773   -0.164435    0.141064
N      -4.015446   -1.413083    0.195196
N      -2.988860   -2.286547    0.153205
C      -1.638234   -1.971371    0.059424
N      -0.655996   -2.793985    0.018862
H      -0.325444    1.796188   -0.927269
H      -0.223373    1.837870    0.675567
H       0.457924   -0.494451   -0.978673
H       0.567314   -0.449562    0.746049
H      -4.486284    0.556785    0.173209
H      -3.268277   -3.256306    0.196361
H      -0.964195   -3.767087    0.063930
