16

O      -0.140476   -0.012443    0.002180
C      -0.028917    1.185276    0.010748
N       1.166736    1.875253    0.002423
C       1.442070    3.330875    0.011330
C       2.934115    2.965763   -0.008673
C       4.079467    3.578912   -0.767231
C       4.096431    3.565838    0.734390
C       2.542746    1.509448   -0.017042
O       3.103264    0.456476   -0.032184
H      -0.890732    1.883953    0.026985
H       1.070319    3.848768   -0.877347
H       1.090797    3.833852    0.916747
H       4.734121    2.895144   -1.296570
H       3.894446    4.521189   -1.271645
H       3.923051    4.499159    1.259180
H       4.762747    2.873088    1.236814
