19

C      -0.310654    1.690419   -0.176594
C      -0.106658    0.182430    0.015276
C      -1.450567   -0.567627    0.012984
O      -2.327216   -0.120032    1.034988
C       0.818782   -0.379838   -1.050319
C       2.322248   -0.053036   -0.969751
C       2.474038   -1.557944   -0.746457
O       3.348143   -2.341849   -0.567189
O       1.126797   -1.807558   -0.824509
H       0.622970    2.248126   -0.055335
H      -0.706554    1.907843   -1.175757
H      -1.033711    2.058606    0.554157
H       0.371583    0.006049    0.990889
H      -1.974537   -0.377550   -0.931742
H      -1.271207   -1.648607    0.079551
H      -1.987006   -0.439111    1.876897
H       0.387957   -0.267670   -2.050689
H       2.796244    0.316239   -1.880226
H       2.633054    0.558284   -0.120238
