14

N       0.039221    1.466982    0.165318
C      -0.001021    0.053483    0.063623
C      -1.133925   -0.697799    0.062248
F      -2.349066   -0.171559    0.109204
N      -1.099150   -2.045634    0.048089
C       0.106314   -2.780130   -0.031117
N       0.012592   -4.051688   -0.090020
N       1.275974   -2.025866   -0.024003
C       1.198133   -0.730000    0.035459
H       0.384082    1.901879   -0.684748
H      -0.879222    1.848463    0.357898
H      -1.959519   -2.574383    0.071274
H       0.951522   -4.442806   -0.130674
H       2.140580   -0.180797    0.062450
