18

O      -0.115248    1.448409   -0.412433
C       0.035135    0.076251   -0.098979
C      -1.347688   -0.558388    0.067877
O      -2.138681   -0.287595   -1.082649
C      -1.398279   -2.060932    0.339005
C      -2.712855   -2.200470    1.115594
O      -2.849543   -0.962793    1.853966
C      -2.077271   -0.004422    1.296995
N      -1.973798    1.190409    1.707569
H      -0.588692    1.833450    0.348001
H       0.550953   -0.392967   -0.943379
H       0.637709   -0.079217    0.808033
H      -1.919683    0.626654   -1.318909
H      -1.384762   -2.636998   -0.586944
H      -0.551136   -2.361877    0.963931
H      -3.571947   -2.299808    0.445356
H      -2.722859   -3.015802    1.841103
H      -2.567478    1.371200    2.517328
