19

C      -0.019177    1.461321    0.017565
N      -0.028159    0.014572    0.041432
C      -0.049680   -0.824150   -1.050446
N      -0.059933   -2.101253   -0.724895
C      -0.052737   -2.088398    0.646429
C      -0.036775   -0.817092    1.136116
C       0.042845   -0.722885    2.622805
C      -0.235359   -2.221453    3.009677
C       0.006236   -3.110860    1.741364
H       0.872268    1.857713    0.514330
H      -0.016271    1.799824   -1.020521
H      -0.905616    1.869565    0.513786
H      -0.066410   -0.426329   -2.055498
H       1.032990   -0.393490    2.968157
H      -0.688845   -0.048560    3.082971
H       0.374088   -2.537399    3.859859
H      -1.281862   -2.312800    3.314299
H      -0.746154   -3.901402    1.654431
H       0.983476   -3.609823    1.778368
