19

C      -0.041799    1.348016   -0.034674
O       0.109505   -0.060293   -0.053562
C       0.755955   -0.536307   -1.166592
C       2.206869   -0.271165   -1.641445
C       1.603963   -1.281897   -2.643115
O       2.166300   -1.810512   -3.785989
C       0.787498   -2.048809   -1.529397
C      -0.517462   -1.962744   -2.349072
C       0.192320   -0.623705   -2.642983
H       0.930739    1.859413   -0.037037
H      -0.625907    1.701221   -0.895786
H      -0.573361    1.598749    0.885604
H       2.436633    0.724299   -2.034518
H       3.008063   -0.634168   -0.988112
H       2.940115   -2.326390   -3.535019
H       1.162093   -2.844894   -0.883369
H      -0.612238   -2.655568   -3.189038
H      -1.447886   -1.908785   -1.778223
H      -0.114087    0.209403   -3.277088
