20

C      -0.128490    1.581906   -0.073710
C      -0.066195    0.043697    0.005159
C       0.757678   -0.490235    1.202706
C       2.227588   -0.086932    1.172614
C       2.667905    1.284187    1.744012
O       3.612916    0.661726    2.633233
C       3.136451   -0.653652    2.288436
C      -1.422392   -0.514980    0.048797
N      -2.491177   -0.952528    0.096041
H       0.874298    1.995497   -0.205689
H      -0.741734    1.902344   -0.919284
H      -0.561429    2.001259    0.838824
H       0.397634   -0.330577   -0.917447
H       0.295039   -0.153073    2.138489
H       0.690563   -1.584591    1.202054
H       2.648477   -0.269279    0.178631
H       3.153256    1.980788    1.050200
H       1.881655    1.820248    2.293846
H       2.590673   -1.123346    3.119160
H       3.948344   -1.319617    1.975061
