23

C      -0.034377    1.571573   -0.079187
C       0.045532    0.041197   -0.037891
C       0.646070   -0.544555   -1.330284
C       0.700202   -2.077446   -1.300586
C       1.464736   -2.587226   -0.071923
C       0.872833   -2.018720    1.226790
C       0.777303   -0.470625    1.232352
C       2.155338    0.138496    1.406937
O       2.536615    0.668323    2.421072
H       0.957882    2.025698   -0.183624
H      -0.640162    1.907875   -0.926885
H      -0.483312    1.970795    0.836211
H      -0.981435   -0.345414    0.039655
H       0.050237   -0.204150   -2.185623
H       1.656439   -0.143653   -1.489844
H      -0.324558   -2.473862   -1.276859
H       1.158884   -2.457596   -2.220038
H       1.440043   -3.681950   -0.035647
H       2.523104   -2.308901   -0.159127
H      -0.143897   -2.412187    1.356644
H       1.448463   -2.356575    2.095720
H       0.213142   -0.159815    2.118801
H       2.838445    0.056961    0.531171
