27

C       0.162708    1.751731    0.077811
C       0.193992    0.225775   -0.069143
C       0.609779   -0.503860    1.213210
C      -0.343810   -0.331416    2.410297
C       0.155309   -1.387766    3.402892
C       0.443749   -2.612122    2.512035
C       0.820661   -2.055877    1.101800
C       0.029085   -2.749784   -0.020046
C       0.352173   -4.242644   -0.149863
H       1.136922    2.138226    0.398722
H      -0.088731    2.233623   -0.872360
H      -0.578864    2.072297    0.816325
H      -0.792944   -0.125564   -0.395065
H       0.891356   -0.035906   -0.875587
H       1.576942   -0.080457    1.522962
H      -0.338135    0.681629    2.822523
H      -1.376215   -0.554073    2.105559
H       1.078198   -1.033643    3.878715
H      -0.556238   -1.606241    4.204679
H       1.218294   -3.260787    2.930633
H      -0.463322   -3.222987    2.432401
H       1.883114   -2.243856    0.902698
H      -1.048130   -2.623622    0.155576
H       0.241259   -2.263888   -0.978966
H       0.118019   -4.792342    0.767500
H      -0.217935   -4.700983   -0.964225
H       1.416773   -4.395089   -0.362044
