21

C      -0.176389    1.281365    0.019937
O      -0.069549   -0.120365   -0.170992
C       0.814268   -0.581049   -1.210829
C       2.223330   -0.021040   -1.096128
C       0.691737   -2.107022   -1.168030
C      -0.675442   -2.406684   -1.821612
C      -0.770020   -1.390779   -2.972828
C       0.103114   -0.212211   -2.540943
O       0.204481    0.849779   -3.103851
H       0.750998    1.713589    0.417289
H      -0.441826    1.810315   -0.902869
H      -0.970865    1.424681    0.756651
H       2.616231   -0.173056   -0.086151
H       2.887859   -0.524567   -1.804420
H       2.240604    1.045802   -1.332431
H       1.501668   -2.550581   -1.758996
H       0.771584   -2.480908   -0.144587
H      -0.759582   -3.441962   -2.159908
H      -1.471769   -2.225160   -1.095520
H      -0.333444   -1.788963   -3.898328
H      -1.781753   -1.060119   -3.220916
