18

O      -0.731653    0.729747   -0.539965
C       0.151778    0.869565    0.269558
C       1.245458    1.895926    0.219835
C       1.306038    3.070198   -0.780389
C      -0.045887    3.786769   -0.566057
C       0.280820    4.193453    0.886040
C       1.530049    5.058120    0.633961
N       2.235081    3.790042    0.238605
C       1.329405    3.056913    1.230061
H       0.220398    0.193239    1.154559
H       2.209539    1.373429    0.267161
H       1.694602    2.948594   -1.789224
H      -0.187336    4.655373   -1.214547
H      -0.893787    3.114277   -0.685932
H      -0.533733    4.485006    1.549598
H       1.478779    5.846263   -0.123990
H       2.008924    5.443372    1.538721
H       1.673700    2.942713    2.258382
