13

N      -0.007036    1.413094    0.154134
C      -0.014114    0.024048    0.048908
C      -1.176585   -0.747502    0.027519
N      -1.192462   -2.085309   -0.010570
C      -0.038788   -2.704047   -0.029574
F      -0.070619   -4.035854   -0.065064
C       1.205091   -2.075712   -0.019265
C       1.186695   -0.697999    0.019635
F       2.332274   -0.007397    0.020025
H       0.843759    1.844064   -0.177863
H      -0.827890    1.866331   -0.220527
H      -2.145851   -0.254318    0.043785
H       2.133388   -2.630285   -0.044157
