14

C       0.087139    1.414988    0.062491
N      -0.054734   -0.028621    0.068432
C      -1.261213   -0.640880   -0.026366
O      -2.336720   -0.077152   -0.124346
C      -1.199765   -2.130874   -0.003744
C      -2.201266   -3.048556   -0.078448
N      -1.608454   -4.285515   -0.013112
N      -0.362801   -4.188115    0.091202
O      -0.038877   -2.776481    0.102145
H       0.687558    1.748063   -0.790519
H      -0.912207    1.843776   -0.014227
H       0.560013    1.766552    0.985282
H       0.766364   -0.608241    0.143872
H      -3.263581   -2.910591   -0.170368
