18

C       0.111134    1.513636    0.038579
C      -0.026571    0.006004   -0.144137
N       0.762194   -0.664909    0.997143
H      -0.007394   -0.785335    1.711165
H       1.141166   -1.575542    0.745195
H       1.512177   -0.073003    1.350290
C      -1.459656   -0.492269    0.017911
C      -1.753452   -1.855207    0.476929
O      -1.746822   -0.772907    1.429763
C      -2.544523    0.198404   -0.900616
O      -2.009253    0.832275   -1.833342
O      -3.707079   -0.054727   -0.591486
H       1.157661    1.830425   -0.040224
H      -0.480568    1.973613   -0.753385
H      -0.291264    1.829037    1.007479
H       0.402352   -0.319298   -1.091557
H      -2.749039   -2.223526    0.245770
H      -0.985186   -2.616736    0.630708
