16

O      -0.231431    1.312206    0.463501
N      -0.033755   -0.076610    0.338375
C      -1.069236   -0.637944   -0.123000
C      -2.458011   -0.179540   -0.536694
C      -2.797559   -1.673125   -0.728198
C      -4.062157   -2.354661   -0.386631
N      -3.596566   -2.268875   -1.788848
C      -1.348387   -2.101350   -0.411673
H       0.612474    1.604790    0.823955
H      -3.019182    0.365726    0.228195
H      -2.463785    0.413636   -1.458759
H      -4.047104   -3.355712    0.036697
H      -4.906025   -1.743168   -0.075667
H      -4.116800   -1.549156   -2.285804
H      -0.814878   -2.499776   -1.280580
H      -1.215767   -2.787217    0.429869
