23

C      -0.142715    1.549368    0.037608
C       0.096720    0.033384    0.017962
C       0.751285   -0.478482   -1.248210
C       0.080460   -0.408543   -2.664182
C       1.166451   -1.463165   -2.967754
O       2.394545   -0.722128   -2.839146
C       2.154762    0.026402   -1.627054
C       0.928093   -2.019954   -1.540078
C       1.998405   -2.855709   -0.857862
H       0.796791    2.109054   -0.009801
H      -0.759530    1.862893   -0.811108
H      -0.659615    1.850225    0.953845
H       0.715745   -0.249297    0.880542
H      -0.861560   -0.484746    0.151034
H      -0.935182   -0.809372   -2.669855
H       0.134983    0.530680   -3.220036
H       1.202391   -2.072443   -3.869926
H       2.187468    1.101125   -1.839799
H       2.920152   -0.207151   -0.877106
H      -0.050447   -2.505766   -1.473849
H       3.000722   -2.490439   -1.094796
H       1.876135   -2.852118    0.231212
H       1.941136   -3.898211   -1.189110
