20

C      -0.027787    1.579730    0.021254
C      -0.004999    0.040776    0.043231
C       0.772581   -0.484981    1.263416
C      -1.397920   -0.526246   -0.000666
N      -2.293322   -0.280467    0.960512
N      -3.366562   -0.946283    0.559451
N      -3.259745   -1.610083   -0.583481
C      -2.004784   -1.360293   -0.969076
C      -1.446037   -1.924916   -2.235383
H       0.990846    1.981171    0.022595
H      -0.542835    1.957266   -0.867366
H      -0.551106    1.965763    0.901083
H       0.509491   -0.304600   -0.862116
H       0.280202   -0.176852    2.190626
H       0.826760   -1.577932    1.259967
H       1.794496   -0.091980    1.269006
H      -4.219546   -0.947509    1.093946
H      -1.124686   -1.134519   -2.922305
H      -0.576033   -2.562293   -2.043773
H      -2.205479   -2.526485   -2.738667
