19

C       0.039804    1.632981   -0.126321
C       0.080979    0.135102   -0.011152
N      -1.203573   -0.475452   -0.543014
H      -1.375575   -0.202059   -1.515823
H      -1.160732   -1.495560   -0.490900
H      -2.001138   -0.166834    0.022864
C       1.297306   -0.717943   -0.238986
N       2.534125   -0.075513   -0.585595
C       0.664970   -0.632203    1.156295
C       1.374855    0.149174    2.318658
O       2.127148    1.082710    1.927547
O       1.098485   -0.257471    3.445668
H       0.900618    2.014244    0.430380
H       0.090745    1.966192   -1.169626
H      -0.863745    2.045047    0.342106
H       1.127312   -1.643751   -0.790730
H       2.757995    0.535301    0.215139
H       3.262610   -0.782795   -0.619504
H       0.100450   -1.499004    1.498037
