19

O       0.106432    1.308430   -0.403569
C       0.015435    0.002857    0.134476
C      -1.395007   -0.571422    0.023399
C      -2.352883    0.217023    0.760321
C      -3.102239    0.926804    1.380674
C      -1.958951   -1.185696   -1.250377
C      -0.881330   -1.942010   -2.034727
C      -0.632244   -2.845860   -0.781840
C      -1.710784   -2.059715   -0.023427
H      -0.568440    1.841251    0.033608
H       0.728459   -0.603310   -0.427074
H       0.321932   -0.019902    1.191812
H      -3.779281    1.532505    1.930573
H      -2.897359   -0.823671   -1.650978
H      -1.300585   -2.508296   -2.868808
H      -0.042883   -1.347781   -2.408394
H      -0.935812   -3.879445   -0.960532
H       0.373075   -2.854916   -0.350918
H      -2.424825   -2.480098    0.673989
