15

C       0.073403    1.371989    0.278109
N      -0.009257   -0.065671    0.102575
C      -0.025745   -0.773001   -1.068238
N      -0.112484   -2.067327   -0.872363
C      -0.166692   -2.232985    0.492372
C      -0.101357   -1.008084    1.100393
O      -0.139081   -0.595145    2.402216
C       0.765642   -1.156603    3.267783
O       0.748374   -0.915838    4.431008
H       0.980837    1.648409    0.822288
H       0.095966    1.840153   -0.706981
H      -0.792810    1.744638    0.830696
H       0.021945   -0.276323   -2.026344
H      -0.264151   -3.203364    0.953422
H       1.466050   -1.829544    2.743771
