15

C      -0.230251    1.478907    0.021419
C       0.000572   -0.000337   -0.018545
N       0.062809   -0.588845   -1.171510
N       0.274240   -1.931593   -1.136408
C       0.429502   -2.733585   -0.017599
N       0.629165   -3.996864    0.027225
C       0.332155   -1.910966    1.204110
O       0.465472   -2.570996    2.349317
N       0.132308   -0.637562    1.203703
H       0.596532    1.979545    0.536407
H      -0.319935    1.875507   -0.990226
H      -1.141892    1.706967    0.583808
H       0.317988   -2.360997   -2.048245
H       0.668653   -4.403477   -0.909907
H       0.380223   -1.910833    3.054541
