16

C       0.075326    0.634465   -0.713527
C      -0.085699   -0.259292    0.511000
O       0.510408    0.295070    1.677296
C      -1.555551   -0.584524    0.813486
O      -2.191943   -1.236928   -0.282484
C      -2.225604   -2.584512   -0.264858
N      -2.651446   -3.219767   -1.268080
H       1.133606    0.816873   -0.917441
H      -0.383714    0.172811   -1.591394
H      -0.417548    1.602145   -0.550596
H       0.443489   -1.205709    0.341893
H       0.237307    1.217124    1.738574
H      -1.612645   -1.195340    1.722827
H      -2.117088    0.340346    0.988362
H      -1.872545   -3.015799    0.683072
H      -2.635253   -4.219390   -1.077537
