19

C      -0.746318    1.236090   -0.257476
C      -0.077998   -0.120345   -0.001914
C       0.594211   -0.703575   -1.229474
C       0.482196   -2.139249   -1.519873
O      -0.289765   -1.178737   -2.255645
C       1.794519    0.087768   -1.761188
O       2.761498    0.244672   -0.757659
C       2.410819   -0.534921   -2.999988
O       3.594426   -0.774618   -3.050664
H      -0.014095    2.010526   -0.506153
H      -1.465400    1.166611   -1.079498
H      -1.283228    1.570929    0.634505
H       0.676386   -0.030590    0.786583
H      -0.829063   -0.838673    0.343664
H       1.257912   -2.652968   -2.087404
H      -0.090697   -2.777070   -0.849282
H       1.415887    1.074364   -2.089616
H       3.591690   -0.070596   -1.151276
H       1.727809   -0.734414   -3.844658
