20

C      -0.061803    1.598154    0.080957
C       0.027584    0.082233   -0.130829
C      -1.333267   -0.587128   -0.072241
C      -1.487891   -2.097688    0.130842
C      -1.218766   -1.923450    1.654799
C      -2.517476   -2.629914    2.068661
O      -3.121725   -2.272378    3.276171
C      -2.866051   -1.835742    0.803427
N      -2.017321   -0.625754    1.300838
H       0.928782    2.061643    0.054766
H      -0.672081    2.069969   -0.697038
H      -0.521440    1.826235    1.047055
H       0.477115   -0.134409   -1.109003
H       0.695826   -0.359504    0.617817
H      -2.003934   -0.148071   -0.824156
H      -1.202353   -2.938403   -0.510251
H      -0.263111   -1.866517    2.176696
H      -2.534922   -3.719895    1.989594
H      -3.097011   -1.307113    3.317543
H      -3.825342   -1.662323    0.311644
