21

C      -0.259781    1.487730   -0.063895
C       0.058783   -0.008708    0.058321
C       0.850552   -0.534461   -1.140168
N       0.785971   -0.308463    1.289525
C       0.150426   -0.445863    2.488008
O      -1.058096   -0.449869    2.627166
N       1.071442   -0.555539    3.566921
C       1.651325   -1.871330    3.865966
C       0.620921   -1.261290    4.752670
H       0.660234    2.081518   -0.115320
H      -0.842424    1.687124   -0.969276
H      -0.841086    1.820462    0.799440
H      -0.886254   -0.554018    0.137534
H       1.815902   -0.020948   -1.230978
H       1.042264   -1.607082   -1.045898
H       0.299003   -0.361430   -2.068547
H       1.775277   -0.114793    1.319347
H       1.344575   -2.707002    3.241829
H       2.700455   -1.868848    4.148371
H       0.914597   -0.812822    5.696934
H      -0.385058   -1.668036    4.717351
