12

O      -0.105138    0.046672    0.002816
C      -0.034668    1.243687    0.008557
C       1.342027    1.954451   -0.002004
O       2.370630    1.320752   -0.016579
C       1.347713    3.429174    0.005645
C       2.377574    4.325389   -0.000655
C       1.720912    5.578153    0.012908
N       0.411889    5.450320    0.026254
O       0.169010    4.091687    0.021624
H      -0.927490    1.897919    0.021579
H       3.431351    4.105649   -0.013037
H       2.148759    6.570180    0.013564
