20

O       0.087740    1.359201    0.536259
C       0.071472    0.011589    0.167322
C      -1.333825   -0.491342   -0.099702
N      -2.285295    0.337935   -0.057138
C      -3.704223    0.032848   -0.113561
C      -4.190502   -0.914056   -1.215819
C      -3.647464   -2.336277   -1.081000
C      -2.146872   -2.426305   -1.319829
O      -1.325874   -1.835825   -0.303734
H      -0.840593    1.638409    0.457928
H       0.671541   -0.165032   -0.741141
H       0.510303   -0.623196    0.952788
H      -3.998929   -0.381778    0.862762
H      -4.233092    0.986692   -0.210309
H      -5.286180   -0.931738   -1.181866
H      -3.912767   -0.504170   -2.195828
H      -3.880145   -2.743265   -0.088679
H      -4.131543   -2.992531   -1.814958
H      -1.823032   -3.469730   -1.346021
H      -1.892503   -1.966758   -2.285281
