18

C      -0.014495    1.445623   -0.069325
N       0.064605   -0.000038   -0.167051
C       0.640463   -0.615215    0.795200
N       1.218981   -0.085592    1.916310
C       0.750063   -2.131617    0.778273
O       1.133333   -2.731169    1.768081
N       0.477349   -2.747140   -0.414706
C      -0.731270   -2.721813   -1.199469
C      -0.230242   -3.994166   -0.571266
H       0.980248    1.909679    0.020307
H      -0.496277    1.848845   -0.963218
H      -0.606558    1.774594    0.801449
H       0.972740    0.843806    2.209652
H       1.451411   -0.760448    2.630630
H      -1.600147   -2.240158   -0.763457
H      -0.598928   -2.550919   -2.263578
H       0.259310   -4.743970   -1.186004
H      -0.749148   -4.378727    0.302926
