14

C      -0.018662    1.552374   -0.024225
C       0.013004    0.018251    0.019097
O       0.755712   -0.476891   -1.100227
C       1.829759   -1.234305   -0.664995
O       2.602313   -1.738172   -1.421876
C       1.788977   -1.245194    0.819097
C       0.743657   -0.536459    1.229406
C      -1.359295   -0.526368   -0.042978
N      -2.441415   -0.929467   -0.057276
H       1.004558    1.931524    0.023497
H      -0.484568    1.886398   -0.953319
H      -0.590405    1.945174    0.820396
H       2.529981   -1.765403    1.407467
H       0.408783   -0.339439    2.238712
