18

C      -0.010713    1.525086    0.109398
C       0.050669    0.027756    0.022403
C       0.903235   -0.770458   -1.007681
C       0.788612   -1.855561    0.067054
C      -0.727629   -2.105588    0.445951
C      -0.323348   -1.576609    1.843658
N       0.753525   -0.779031    1.144548
C      -1.251079   -0.780727   -0.103699
O      -2.333930   -0.451710   -0.501350
H       0.991425    1.961075    0.131819
H      -0.554448    1.927375   -0.751135
H      -0.542203    1.839404    1.013592
H       0.486914   -0.939310   -2.003709
H       1.924348   -0.387045   -1.071463
H       1.491273   -2.681588    0.182330
H      -1.298364   -3.013211    0.258302
H      -1.057673   -1.004566    2.420728
H       0.153324   -2.321314    2.486370
