18

C       0.129773    1.504212   -0.116058
C       1.380966    0.669033   -0.036800
N       1.963051    0.598786    1.295158
C       1.136123   -0.068968    1.988637
O       1.079260   -0.172642    3.329331
C      -0.230029   -0.696574    3.671383
C      -1.119306   -0.481032    2.423320
C      -0.076083   -0.680857    1.314177
C      -0.005553   -0.001667   -0.035627
H      -0.109449    2.118862    0.746384
H      -0.125603    1.950761   -1.071544
H       2.065820    0.622405   -0.874954
H      -0.130483   -1.761238    3.915809
H      -0.570903   -0.162371    4.560636
H      -1.958025   -1.179564    2.393081
H      -1.514670    0.539693    2.409298
H       0.090582   -1.760313    1.185770
H      -0.372658   -0.526008   -0.908781
