23

C       0.213300    1.526927    0.078390
C      -0.164039    0.054738   -0.119088
C       0.629245   -0.597585   -1.237307
O       2.072717   -0.596631   -1.014916
C       2.135987   -1.998914   -1.322815
C       3.300824   -2.473945   -2.128145
C       1.368549   -2.769206   -0.289136
C       0.628988   -2.114743   -1.448159
C      -0.259878   -2.856053   -2.403339
H       1.278396    1.619336    0.308474
H       0.014222    2.112395   -0.826182
H      -0.355403    1.974962    0.898617
H      -0.006558   -0.498490    0.813189
H      -1.230965   -0.033640   -0.364328
H       0.423030   -0.082088   -2.188141
H       4.232805   -2.353480   -1.563819
H       3.192299   -3.534481   -2.373596
H       3.393893   -1.905840   -3.059186
H       1.433292   -3.851182   -0.366259
H       1.297328   -2.390010    0.726447
H      -1.271617   -2.979140   -1.997703
H      -0.347299   -2.328083   -3.359985
H       0.129986   -3.857931   -2.611109
