13

N       0.106243    0.986256   -0.785365
C      -0.061169   -0.042700   -0.068236
N       1.039490   -0.601401    0.660554
N       1.473670   -1.758657    0.537874
N       0.812559   -2.698525   -0.237839
C      -0.541135   -2.895954   -0.402605
C      -1.563975   -2.049637   -0.161433
C      -1.450795   -0.628273    0.134025
O      -2.380601    0.076491    0.461830
H       1.089389    1.275600   -0.766422
H       1.385329   -3.527752   -0.287995
H      -0.755131   -3.910500   -0.725720
H      -2.572978   -2.429584   -0.271158
