25

C       0.097631    1.540864   -0.025091
C       0.078384    0.084787   -0.006105
C       0.073086   -1.119419    0.009454
C       0.030048   -2.577786    0.028828
C      -1.404481   -3.145062    0.054303
C      -1.423838   -4.676932    0.079252
C      -2.824414   -5.313187    0.008174
C      -2.714108   -6.834751   -0.160990
C      -3.689242   -4.969232    1.229375
H       0.584067    1.922942   -0.929705
H      -0.917024    1.954001    0.002146
H       0.640569    1.945212    0.836682
H       0.559797   -2.974333   -0.848222
H       0.580745   -2.951223    0.903178
H      -1.923856   -2.736298    0.927327
H      -1.945393   -2.779045   -0.827028
H      -0.828572   -5.049698   -0.765910
H      -0.914870   -5.034531    0.986674
H      -3.325937   -4.911461   -0.884672
H      -2.215208   -7.289356    0.703562
H      -3.702579   -7.297077   -0.252536
H      -2.136184   -7.097462   -1.053422
H      -3.217529   -5.325967    2.153359
H      -3.850225   -3.892264    1.331529
H      -4.673429   -5.443916    1.156831
