23

C      -0.002575    1.656074   -0.156492
C       0.430869    0.193592   -0.277260
C       0.773691   -0.506931    1.030201
C       1.052694   -2.001363    0.913037
C      -0.224661   -2.864838    0.923583
C       0.069239   -4.318923    0.572755
O      -0.825873   -2.858692    2.207703
C       1.313056    0.236274    2.180296
O      -0.067867   -0.150527    2.159245
H       0.825749    2.304465    0.145486
H      -0.369117    2.023700   -1.118861
H      -0.803450    1.760770    0.579621
H      -0.367856   -0.381588   -0.763024
H       1.303115    0.108825   -0.938237
H       1.613989   -2.178672   -0.012112
H       1.680861   -2.337665    1.745174
H      -0.929554   -2.463081    0.173471
H       0.444230   -4.410533   -0.451256
H       0.814243   -4.734311    1.259256
H      -0.843836   -4.913142    0.664841
H      -0.824772   -1.941548    2.514013
H       1.931421   -0.286404    2.908406
H       1.481043    1.308907    2.119488
