19

C      -0.172745    1.568866   -0.092415
C       0.013782    0.061730    0.028744
C       1.190525   -0.665205   -0.735928
C       2.157591   -0.114919    0.371049
C       0.889873   -0.558197    1.191020
C       0.673161   -0.574246    2.679683
O       1.566191   -1.476514    3.314848
C       0.948161   -1.787416    0.275495
O       0.876104   -2.978193    0.360123
H       0.749791    2.141613    0.021156
H      -0.596672    1.814335   -1.071693
H      -0.878283    1.922598    0.666670
H      -0.955976   -0.432194   -0.094158
H       1.360384   -0.711839   -1.809352
H       3.079714   -0.669446    0.549947
H       2.343534    0.957445    0.340910
H       0.863717    0.409548    3.121995
H      -0.378816   -0.827420    2.890698
H       1.409000   -2.348394    2.933595
