16

C      -0.022930   -1.159991    0.319297
C       0.115046    0.029714    0.418192
C       0.304657    1.471331    0.502827
C       1.166439    2.014853   -0.668496
C       1.357608    3.457347   -0.591172
C       1.496966    4.648125   -0.497948
C       1.677582    6.094747   -0.402655
C       2.097452    6.535287    0.934864
N       2.426276    6.893175    1.982095
H      -0.154199   -2.211310    0.248332
H      -0.666052    1.979985    0.498464
H       0.785861    1.733568    1.451781
H       2.137315    1.506731   -0.663052
H       0.686000    1.751249   -1.617574
H       2.429023    6.436988   -1.126019
H       0.747734    6.619280   -0.658011
