14

O       0.034692    0.067884   -0.196395
C       0.049347    1.251671   -0.022797
C      -1.167078    2.253279    0.060607
N      -0.566477    3.614745    0.290399
C       0.659084    3.558982   -0.594402
C       1.712466    3.956704    0.458023
O       2.495906    2.684357    0.312728
C       1.113752    2.283830    0.182873
C       0.564266    3.290952    1.241482
H      -1.741926    2.234423   -0.869596
H      -1.832490    1.978420    0.883872
H       0.644856    3.717094   -1.672302
H       2.292196    4.863670    0.620378
H       0.439052    3.135329    2.312545
