16

C       0.094918    1.348763    0.232194
O      -0.031650   -0.021028   -0.153005
C      -1.295131   -0.488337   -0.074685
C      -2.231046   -0.902111    1.002525
N      -3.355151   -0.147850    0.436767
C      -2.648333   -0.192966   -0.877126
C      -2.552647   -1.693714   -1.261696
O      -2.820953   -2.312243   -2.252248
C      -1.742166   -1.965453   -0.030065
H       1.151382    1.601498    0.132210
H      -0.500904    1.997037   -0.421612
H      -0.225554    1.495308    1.270479
H      -2.078385   -1.054075    2.063823
H      -4.233851   -0.672105    0.419280
H      -2.866948    0.579929   -1.610144
H      -1.151610   -2.825989    0.250519
