17

O      -0.300543    0.370475    0.854009
C       0.242260    0.807602   -0.128364
C       1.433633    1.745047   -0.101215
C       1.185725    3.008342   -0.922055
C       2.398548    3.903275   -1.248659
C       2.056846    3.591510   -2.732575
O       0.973012    2.713421   -2.325751
C       1.618515    4.708306   -3.552860
C       1.266822    5.638883   -4.227353
H      -0.107746    0.543454   -1.149319
H       1.660597    1.997979    0.939333
H       2.293020    1.212697   -0.532142
H       0.328627    3.559172   -0.513335
H       2.310581    4.950633   -0.963311
H       3.361160    3.508714   -0.919632
H       2.829048    3.023262   -3.265152
H       0.952875    6.456473   -4.828481
