19

O      -0.277337    1.522149    0.157037
C      -0.160132    0.135605    0.037896
C      -0.427736   -0.828998    1.182013
C      -0.921667   -0.311702    2.521339
C      -2.191299    0.492999    2.438997
C      -2.996834    0.515650    1.374701
C      -2.750920   -0.267715    0.112242
C      -1.336957   -0.807089   -0.028660
O      -1.219696   -1.930104   -0.866396
H      -1.019490    1.717137    0.742595
H       0.676875   -0.110563   -0.608019
H       0.244859   -1.679651    1.232416
H      -1.091435   -1.162222    3.196636
H      -0.137295    0.288528    3.003078
H      -2.459104    1.065564    3.323757
H      -3.908496    1.107345    1.404839
H      -3.431861   -1.129369    0.083943
H      -3.009965    0.347004   -0.762538
H      -1.317382   -1.629688   -1.777411
