14

C       0.083637    1.485702   -0.055034
C      -0.067087    0.007715   -0.057492
C      -1.130741   -0.832354    0.118041
N      -2.462765   -0.502762    0.426458
C      -0.612280   -2.169804    0.018595
C       0.719250   -2.040123   -0.206092
O       1.074740   -0.734954   -0.249592
H       0.559915    1.861231    0.859880
H       0.690236    1.823124   -0.902723
H      -0.895567    1.968231   -0.134907
H      -2.675187    0.469965    0.243040
H      -3.126017   -1.079455   -0.076786
H      -1.168254   -3.089995    0.112342
H       1.515875   -2.751002   -0.352376
