19

O       0.532662    0.053236    0.843365
C      -0.242947    0.438726   -0.285824
C      -1.567668   -0.257511   -0.203614
C      -2.706542    0.003967   -1.183919
C      -3.724565   -0.921034   -0.476699
C      -2.966121   -2.267246   -0.416921
C      -1.735682   -1.702725    0.282115
C      -2.279214   -0.548770    1.098311
O      -3.676627   -0.462739    0.884022
H       1.387917    0.487822    0.783282
H      -0.399924    1.530397   -0.303883
H       0.269752    0.168043   -1.224263
H      -3.033376    1.048397   -1.185744
H      -2.490870   -0.312153   -2.209214
H      -4.752708   -0.921297   -0.832269
H      -3.496247   -3.010502    0.185183
H      -2.763288   -2.679762   -1.409410
H      -0.894924   -2.294077    0.615268
H      -1.938706   -0.253307    2.079035
