16

C       0.030752    1.435690    0.086729
C       1.510203    1.897831   -0.119683
C       2.190631    0.577175    0.049902
C       1.308821   -0.462249   -0.070312
N      -0.012845   -0.005177   -0.295799
C       2.039843   -1.678165   -0.078708
C       3.372255   -1.315055    0.028022
N       3.461920    0.057988    0.076326
H      -0.231588    1.567617    1.146603
H      -0.675885    2.014659   -0.513989
H       1.656471    2.318232   -1.125898
H       1.785119    2.677205    0.599439
H      -0.719998   -0.508197    0.227501
H       1.667073   -2.688049   -0.149258
H       4.257303   -1.927095    0.099756
H       4.314964    0.573027    0.199766
