21

C       0.196010    1.529865   -0.225760
C      -0.065303    0.071227    0.063998
N       1.059624   -0.863785   -0.118575
C       0.510450   -0.657759    1.231954
C       1.305520   -0.004605    2.336727
C       2.462408   -0.700037    3.105615
C       3.317567   -0.393399    1.856797
N       2.512014    0.915797    2.028927
C       2.833449    0.736842    3.524944
H       1.173583    1.830373    0.156028
H       0.163460    1.715663   -1.304915
H      -0.569989    2.156431    0.244983
H      -1.040936   -0.287652   -0.264163
H       0.737620   -1.749835   -0.497517
H      -0.118235   -1.456289    1.630913
H       0.585888    0.509894    2.987658
H       2.429624   -1.609050    3.718137
H       4.391142   -0.249073    2.009675
H       3.102921   -0.908262    0.924557
H       2.154519    1.280446    4.188839
H       3.879691    0.944727    3.763456
