15

C       0.055192   -1.147843   -0.006770
C       0.022209    0.053512    0.006717
C      -0.033674    1.482978    0.031629
C      -0.688520    2.419118    1.097452
C       0.015362    3.322883    0.054786
N       1.205354    2.381363    0.012329
C      -0.621984    2.447176   -1.064662
C      -0.018062    2.450132   -2.384700
N       0.397168    2.460446   -3.463037
H       0.090948   -2.209511   -0.027545
H      -1.780415    2.437860    1.164241
H      -0.220404    2.384879    2.083502
H       0.136065    4.404255    0.046079
H       1.646669    2.350242    0.936836
H      -1.710664    2.467470   -1.129431
