15

C       0.166886    1.724930    0.144239
C       0.013270    0.208626    0.043472
C      -1.375368   -0.255430    0.427079
O      -2.001664   -1.082735   -0.186382
C       0.563465   -0.514406   -1.202840
O       1.948072   -0.206889   -1.275132
C       1.550457   -1.313232   -0.434631
C       1.061990   -0.670221    0.854476
O       1.256363   -0.831184    2.018812
H       1.168316    2.020116   -0.174471
H      -0.566627    2.243217   -0.482000
H       0.024560    2.052082    1.178890
H      -1.784713    0.225839    1.341453
H       0.037292   -0.793338   -2.105376
H       2.003123   -2.279407   -0.619602
