19

C      -0.162585    1.584384    0.404991
C      -0.286608    0.070517    0.555799
C      -1.267991   -0.544145   -0.421645
O      -1.802273    0.076234   -1.306645
C      -1.595658   -2.060781   -0.220715
C      -2.053811   -2.688736   -1.542511
O      -0.394210   -2.668793    0.257980
C      -2.651091   -2.137711    0.797418
C      -3.503868   -2.214131    1.642076
H       0.569339    1.980939    1.114087
H       0.154371    1.851935   -0.606062
H      -1.121136    2.078427    0.586101
H       0.676379   -0.432340    0.406307
H      -0.593437   -0.219065    1.568387
H      -1.228597   -2.659664   -2.258256
H      -2.351702   -3.728462   -1.380714
H      -2.897472   -2.133429   -1.954131
H      -0.625100   -3.533880    0.612972
H      -4.261543   -2.277807    2.384190
