18

C      -0.016352    1.512634    0.081056
C       0.101877    0.005874    0.046346
C       1.446244   -0.672227   -0.026453
C       0.621008   -0.757034    1.249273
O       1.023670    0.060857    2.330011
C       2.054398   -0.402504    3.079278
N       2.487217    0.297814    4.033468
C       0.007474   -2.002381    1.624345
C      -0.497241   -3.046890    1.941844
H       0.786732    1.961183    0.668749
H       0.029421    1.917680   -0.935202
H      -0.967691    1.820433    0.525994
H      -0.704010   -0.505522   -0.471218
H       1.560868   -1.572602   -0.618312
H       2.325026   -0.038016    0.030156
H       2.416830   -1.387010    2.762150
H       3.252916   -0.185938    4.498212
H      -0.951406   -3.964292    2.224940
