19

C       0.314670    1.483086    0.703061
C      -0.008778    0.108346    0.167764
C      -1.260103   -0.550144    0.724348
N      -2.445979    0.250553    0.441274
C      -3.182063   -0.075798   -0.776121
C      -3.729802   -0.427764    0.563058
C       0.499285   -0.318972   -1.145020
O       1.104626   -0.791209    0.061316
H       1.222115    1.877383    0.239532
H      -0.517269    2.166371    0.513743
H       0.473348    1.440177    1.786398
H      -1.329028   -1.576714    0.325157
H      -1.162603   -0.630518    1.814570
H      -3.578895    0.768262   -1.332717
H      -2.814433   -0.895509   -1.391667
H      -3.726122   -1.481461    0.838378
H      -4.533506    0.154996    1.004069
H      -0.038331   -1.070852   -1.722143
H       1.106861    0.365861   -1.735397
