16

O      -0.250801    0.388975    0.703192
C       0.126016    1.096467   -0.191783
C       1.284541    2.067931   -0.062339
O       1.545424    2.603204   -1.347949
C       2.574679    3.549889   -1.356016
C       2.735745    4.277256   -2.717407
N       2.493872    5.533369   -1.996818
C       2.220151    4.960889   -0.780698
O       1.832548    5.392422    0.272450
H      -0.351958    1.102227   -1.196405
H       1.018172    2.857027    0.655156
H       2.160100    1.534376    0.340669
H       3.509519    3.139551   -0.948077
H       3.719404    4.205976   -3.189067
H       1.950320    4.006173   -3.428360
H       2.375622    6.480134   -2.326422
