20

C       0.606329    0.778081   -0.506716
O       1.001432    0.422437    0.799413
C       0.004698   -0.246609    1.547542
C      -0.133343   -1.722974    1.188380
C       1.045468   -2.652705    1.599838
N       0.114478   -3.327643    2.508426
C       0.269306   -4.434385    3.414582
C      -0.975592   -2.559545    2.186869
O      -2.116206   -2.566064    2.574575
H      -0.298256    1.405712   -0.498478
H       1.428010    1.349121   -0.945796
H       0.411423   -0.096103   -1.145775
H       0.305898   -0.153075    2.597097
H      -0.971234    0.250502    1.436419
H      -0.458323   -1.855950    0.153420
H       1.438331   -3.297229    0.805471
H       1.877787   -2.147213    2.102176
H       1.014413   -4.218976    4.190330
H      -0.697536   -4.607924    3.893272
H       0.572091   -5.348146    2.888152
