18

C      -0.023516    1.513811    0.014744
C      -0.044269    0.002611    0.017048
C      -1.416063   -0.678619   -0.008501
C      -1.109467   -2.136114    0.408123
C       0.289013   -2.029050    1.005663
C       1.444132   -1.555807    0.167683
N       0.726017   -0.649226    1.187092
C       0.954584   -0.686268   -0.936275
O       1.345501   -0.435977   -2.043205
H       0.996588    1.892166    0.118421
H      -0.431010    1.891029   -0.927905
H      -0.625064    1.909234    0.839150
H      -2.077812   -0.192770    0.716849
H      -1.885408   -0.602273   -0.992740
H      -1.816424   -2.502472    1.157106
H      -1.137922   -2.831508   -0.435373
H       0.569826   -2.699015    1.813893
H       2.453688   -1.925940    0.311812
