17

O      -0.018408    0.064295   -0.198716
C       0.008893    1.252707   -0.025854
C      -1.204584    2.238860    0.047951
C      -0.487883    3.587746    0.282820
C       0.774462    3.541459   -0.605387
C       1.827698    3.961480    0.467222
C       2.619541    2.624210    0.319052
C       1.136162    2.220042    0.177159
C       0.669580    3.273172    1.255387
H      -1.777428    2.198769   -0.884591
H      -1.875883    1.946872    0.862501
H      -1.104362    4.483856    0.377274
H       0.860201    3.644621   -1.689274
H       2.235413    4.959670    0.634121
H       3.244059    2.515119   -0.571944
H       3.143808    2.258723    1.206385
H       0.633830    3.065545    2.327029
