13

N       0.018722    1.350949   -0.078530
C      -0.000970   -0.017730   -0.047081
N      -1.195673   -0.618975   -0.015495
C      -1.192377   -1.953012   -0.042023
C      -0.025911   -2.704345   -0.095278
O      -0.044152   -4.065238   -0.120919
C       1.143614   -1.945440   -0.109194
F       2.304294   -2.610046   -0.145296
N       1.192146   -0.642796   -0.085632
H       0.886437    1.793846    0.174187
H      -0.830863    1.809386    0.206673
H      -2.154484   -2.458359   -0.016713
H       0.868700   -4.374950   -0.150140
