17

C       0.068044    1.455972   -0.319914
N       0.034331    0.021250   -0.025729
C      -1.072487   -0.479729    0.896078
C      -0.115943   -1.694461    1.075282
O      -0.111095   -2.878209    1.117091
C       0.813368   -0.458905    1.197288
C      -0.306956    0.098677    2.114213
C      -0.489905    1.291226    2.955915
N      -0.474044   -0.071381    3.542083
H       1.033574    1.684376   -0.781420
H      -0.710815    1.670258   -1.058248
H      -0.073361    2.123504    0.539172
H      -2.127849   -0.425632    0.634034
H       1.894818   -0.378669    1.278842
H       0.359863    1.911275    3.227800
H      -1.436511    1.822687    2.891227
H      -1.416136   -0.380098    3.770475
