22

C       0.300518    1.477783   -0.464855
C       0.619643    0.024365   -0.187704
O       2.004524   -0.305375   -0.455403
C       2.075444   -1.120637    0.729616
C       0.739201   -0.548060    1.261816
C       0.937766    0.511037    2.347030
N      -0.250161   -1.593931    1.514515
C      -0.298198   -2.275655    2.802464
C      -1.398932   -1.363647    2.382920
H       0.935144    2.154570    0.112651
H       0.460690    1.690066   -1.526877
H      -0.748634    1.692531   -0.234245
H      -0.046108   -0.626391   -0.771571
H       2.015963   -2.192201    0.500882
H       2.977810   -0.915253    1.317189
H       1.760180    1.175977    2.070638
H       0.047389    1.130713    2.489779
H       1.199171    0.057887    3.308889
H      -0.420828   -3.354195    2.752247
H       0.344477   -1.932810    3.610589
H      -1.482939   -0.419786    2.915607
H      -2.342408   -1.763285    2.021185
