20

C      -0.098490    1.591853    0.368652
C       0.057378    0.086160    0.195429
C       0.369673   -0.476388   -1.193175
C       1.723093   -0.114861   -1.654293
N       1.594174   -1.240967   -0.709878
C       1.346267   -0.655032    0.668745
C       2.510455    0.103340    1.298794
C       1.047583   -1.862633    1.550419
O       0.036937   -2.037236    2.178517
H       0.736183    2.154668   -0.060025
H      -1.014979    1.937423   -0.121474
H      -0.172001    1.856928    1.428593
H      -0.805713   -0.418484    0.636058
H      -0.354154   -0.946888   -1.851320
H       2.019601   -0.445270   -2.645290
H       2.190069    0.813253   -1.338509
H       2.831081    0.949644    0.687451
H       2.226157    0.491766    2.282331
H       3.371375   -0.561528    1.429030
H       1.879379   -2.601719    1.563065
