16

N      -0.019333    0.984522   -0.150666
C      -0.125407   -0.380708   -0.084288
O       0.752825   -1.129185   -0.487374
N      -1.297651   -0.821316    0.529363
C      -2.646596   -0.545006    0.054457
C      -2.094122   -1.939761    0.049385
C      -1.739537   -2.628423   -1.254895
O      -0.640289   -3.492659   -1.113618
H       0.904116    1.334845   -0.349392
H      -0.595936    1.545049    0.455255
H      -3.364916   -0.238028    0.809978
H      -2.746517   -0.045288   -0.906881
H      -2.401983   -2.615128    0.845232
H      -2.593733   -3.237508   -1.573456
H      -1.572614   -1.865916   -2.033788
H       0.105694   -2.914697   -0.878302
