15

N      -0.092692    1.311387    0.070450
C      -0.060049    0.050901    0.064932
O      -1.201006   -0.655345   -0.071260
C      -1.115762   -2.059280    0.043186
C      -1.551253   -2.731945    1.398008
C      -2.576573   -3.531565    0.584276
O      -3.456701   -2.572006    0.000519
C      -2.223970   -2.834483   -0.669394
H       0.850800    1.682565    0.159769
H       0.836473   -0.580326    0.151502
H      -0.125408   -2.413773   -0.268213
H      -0.753509   -3.321494    1.854575
H      -1.994401   -2.055234    2.130372
H      -2.949952   -4.536186    0.737642
H      -2.274165   -3.142716   -1.706943
