17

C      -0.000102    1.589751    0.034312
C       0.016047    0.094750    0.037231
C       0.045683   -0.746319   -1.028941
O       0.034856   -0.469204   -2.347875
O       0.080443   -2.044853   -0.679015
C       0.055800   -2.069185    0.732967
N       0.101726   -3.279018    1.414466
C       0.025489   -0.786907    1.184301
N       0.089190   -0.368933    2.518355
H       0.805745    1.999059    0.654961
H       0.128134    1.974046   -0.980873
H      -0.943189    1.999279    0.420670
H       0.155974   -1.298600   -2.824040
H      -0.662689   -3.906243    1.184757
H       0.975452   -3.785115    1.302749
H      -0.070375   -1.145312    3.149753
H      -0.556901    0.382441    2.727314
