16

C       0.116410    1.514740    0.160175
C       0.013114    0.033815    0.024088
C      -0.188214   -0.725972   -1.079507
O      -0.205328   -2.042547   -0.702826
C      -0.002433   -2.012104    0.638110
C      -0.009967   -3.311329    1.364732
C      -1.426342   -3.844103    1.579565
O      -1.752114   -4.983529    1.388148
N       0.128003   -0.818166    1.123430
H       1.087367    1.801060    0.577548
H      -0.001269    2.007701   -0.808068
H      -0.652777    1.898413    0.838472
H      -0.323565   -0.523868   -2.127996
H       0.572065   -4.074814    0.843095
H       0.429528   -3.135349    2.353009
H      -2.146145   -3.080859    1.949546
