16

O       0.082038    1.425147    0.083484
C       0.010974    0.064345   -0.000763
C       0.313394   -0.790183    1.290961
C       0.658722   -2.153834    0.634839
C      -0.285077   -1.958792   -0.577390
C      -1.286685   -0.887720    0.094713
N      -1.149377   -0.873788    1.552303
C       0.365017   -0.737207   -1.232089
O       0.702258   -0.409814   -2.337420
H       0.097239    1.769574   -0.819068
H       0.948950   -0.399034    2.084741
H       1.706694   -2.264985    0.342053
H       0.382307   -2.991222    1.282960
H      -0.627335   -2.812127   -1.154498
H      -2.245283   -0.692879   -0.380317
H      -1.434963   -1.736010    2.018398
