16

O       0.097577    1.429688    0.112665
C       0.056972    0.014175    0.169587
C      -1.362773   -0.539131   -0.046803
C      -1.405236   -2.029295   -0.004591
C      -1.984817   -2.852453    0.896436
O      -1.723797   -4.159893    0.508432
C      -0.991262   -4.012682   -0.615023
O      -0.585375   -5.122633   -1.227153
N      -0.759818   -2.800739   -0.983512
H      -0.078171    1.692445   -0.796386
H       0.742524   -0.446147   -0.555191
H       0.407237   -0.257446    1.170766
H      -2.030314   -0.119319    0.712128
H      -1.725755   -0.198190   -1.025722
H      -2.572877   -2.727944    1.788017
H      -0.907638   -5.883332   -0.728727
