18

C       0.051314    1.428419    0.080664
C       0.015326   -0.054617   -0.035224
C       0.055709   -0.875841   -1.088426
C      -0.018702   -2.231602   -0.420125
O       0.967615   -2.073268    0.717178
C      -0.059210   -1.058392    1.136258
C      -1.041424   -0.646073    2.268985
N      -2.118867   -1.054687    1.250993
C      -1.106193   -2.034877    0.736597
H       0.884248    1.762798    0.711846
H       0.163736    1.895425   -0.901587
H      -0.870060    1.814874    0.531891
H       0.123893   -0.670048   -2.146337
H       0.125264   -3.158501   -0.975347
H      -1.005748   -1.296639    3.149236
H      -1.080584    0.405543    2.566146
H      -2.938285   -1.489068    1.670372
H      -1.085482   -2.940349    1.354296
