14

C      -0.001809    1.531249    0.042557
C       0.016365    0.034560    0.029720
C      -0.006211   -0.775289   -1.100541
N       0.022492   -2.093956   -0.685176
C       0.062171   -2.135967    0.673989
C       0.059606   -0.839507    1.145486
C      -0.050089   -0.425982   -2.465557
N      -0.086080   -0.140752   -3.589736
H       0.889326    1.935797    0.534910
H      -0.036366    1.933949   -0.972792
H      -0.872541    1.913940    0.586216
H       0.013075   -2.887201   -1.302930
H       0.089212   -3.077254    1.199345
H       0.086142   -0.546238    2.183868
