19

C      -1.445472   -0.043589   -0.083079
O      -0.035631   -0.018995    0.023671
C       0.664058   -0.677999   -0.995599
C       0.403986   -0.110802   -2.405896
C       0.681201    1.315288   -2.511597
C       0.914846    2.491595   -2.587416
C       2.157544   -0.827524   -0.653040
O       2.109612   -2.246869   -0.919325
C       0.669441   -2.232334   -0.966497
H      -1.811385    0.581520   -0.908406
H      -1.829675   -1.066108   -0.214353
H      -1.836978    0.357196    0.854376
H       1.034560   -0.669616   -3.107944
H      -0.632508   -0.315496   -2.701836
H       1.120705    3.530948   -2.656855
H       2.876081   -0.305632   -1.292850
H       2.362582   -0.607555    0.401249
H       0.219451   -2.640763   -0.051892
H       0.280187   -2.765701   -1.841560
