17

C       0.019643    1.501285    0.058451
C      -0.021764    0.001594    0.001524
C      -1.189195   -0.692614   -0.114557
C      -1.194656   -2.135630   -0.166999
O      -2.146275   -2.886971   -0.268464
N       0.118001   -2.659723   -0.083316
C       1.243802   -1.905820    0.031897
C       2.551589   -2.639984    0.107748
N       1.216157   -0.607033    0.076420
H       0.633009    1.889590   -0.761456
H      -0.978561    1.938785   -0.003803
H       0.496067    1.827239    0.989145
H      -2.148685   -0.194591   -0.171407
H       0.175395   -3.669374   -0.115185
H       2.710232   -3.249762   -0.788575
H       3.360672   -1.916380    0.196256
H       2.573305   -3.311915    0.972882
