15

C       0.010630    1.419911    0.114749
N      -0.014188   -0.028338    0.019839
C       0.068478   -0.797454   -1.132526
C       0.010229   -2.097016   -0.719108
N      -0.115766   -2.167329    0.656009
C      -0.120080   -0.920037    1.039224
O      -0.233477   -0.442518    2.308702
C       0.067512   -1.294445    3.347151
O      -0.067217   -0.942594    4.475145
H       0.948280    1.815151   -0.286571
H      -0.825892    1.855531   -0.439196
H      -0.074053    1.702118    1.163754
H       0.149622   -0.341401   -2.104917
H       0.041676   -2.991597   -1.320872
H       0.421430   -2.270404    2.990022
