16

O       0.185459    1.174638   -0.452757
C       0.017493   -0.168994   -0.169678
C      -0.433193   -0.564768    1.202406
O      -0.622664    0.456602    2.143856
C      -1.620459    1.391132    2.012432
N      -1.566631    2.354281    2.841223
C      -2.636787    1.173713    0.978553
C      -2.560207    0.183708    0.082809
C      -1.408828   -0.723865    0.056469
H       0.538363    1.606077    0.335566
H       0.696682   -0.835003   -0.698307
H      -0.014492   -1.439181    1.687449
H      -2.351011    2.985134    2.685861
H      -3.474351    1.862127    0.991163
H      -3.347636    0.039203   -0.650484
H      -1.581081   -1.726356   -0.320413
