17

N       0.283354    1.088599    0.077069
C       0.081107   -0.143922    0.112990
O       0.989366   -1.207418    0.262264
C      -0.083221   -2.155487    0.007245
C      -1.127321   -2.084644    1.066304
C      -0.922060   -1.826576    2.530349
C      -0.200780   -2.830009    3.359971
N       0.379899   -1.502342    3.126346
C      -1.102553   -1.035799   -0.060940
H       1.270290    1.313271    0.210435
H       0.141366   -2.973748   -0.663550
H      -1.935386   -2.791752    0.874598
H      -1.749467   -1.288108    2.989469
H      -0.521741   -3.025797    4.379342
H       0.232258   -3.686417    2.847808
H       1.105433   -1.552001    2.417470
H      -1.939527   -0.864254   -0.721198
