25

C      -0.370079    1.573754    0.055742
C      -0.108090    0.065395    0.091399
C       0.611298   -0.479363   -1.138980
C       2.110827   -0.326742   -1.242866
C       1.512088   -1.605876   -0.706209
C       1.372019   -1.785608    0.802494
C       2.659667   -2.215213    1.511340
C       0.693901   -0.472384    1.327275
C       1.635919    0.539490    2.000429
H       0.560195    2.145564   -0.015088
H      -0.981565    1.833471   -0.815139
H      -0.908348    1.912793    0.947618
H      -1.087310   -0.433646    0.113315
H       0.045458   -0.536032   -2.063817
H       2.534696   -0.371200   -2.240853
H       2.639234    0.349598   -0.582193
H       1.618427   -2.503160   -1.308109
H       0.639400   -2.593044    0.942883
H       3.460312   -1.481290    1.378235
H       2.503376   -2.353877    2.586732
H       3.017617   -3.167862    1.106209
H      -0.029242   -0.753033    2.101914
H       2.424897    0.918987    1.346079
H       1.072023    1.403914    2.363434
H       2.124353    0.087882    2.869028
