12

O      -0.229350    0.013579    0.000087
C      -0.075221    1.214358    0.008018
N       1.141093    1.839592    0.001329
C       2.366986    1.172728   -0.015137
C       2.635475   -0.164859   -0.028402
O       3.968057   -0.351161   -0.042012
N       4.610934    0.872155   -0.037851
C       3.657868    1.770655   -0.021798
H      -0.908345    1.940831    0.021225
H       1.155144    2.847331    0.008673
H       2.010723   -1.039085   -0.029801
H       3.917281    2.820304   -0.015560
