16

O      -0.000875   -0.047460   -0.101009
C      -0.017289    1.158683    0.006339
N      -1.130736    1.944926    0.143438
C      -0.893156    3.390629    0.063729
C       0.009130    3.713233    1.282771
O       1.164288    2.885948    1.215541
C       1.213080    2.089650    0.004413
C       1.078794    3.005097   -1.196023
C      -0.051138    3.711819   -1.161982
H      -2.042787    1.546175   -0.012093
H      -1.839961    3.927457    0.108220
H       0.301391    4.770755    1.277671
H      -0.525828    3.489353    2.213281
H       2.131471    1.509693    0.046581
H       1.849307    3.077512   -1.953529
H      -0.334498    4.485616   -1.865291
