17

C       0.159384    1.535440   -0.095377
C       0.025332    0.037314    0.083981
O       0.880751   -0.716741   -0.809573
C       1.406215   -1.522995    0.273301
C       2.919739   -1.583591    0.283059
C       0.671830   -0.642731    1.324225
O       1.446577    0.147876    2.189164
H       1.192029    1.870669    0.043517
H      -0.146118    1.816394   -1.107734
H      -0.476536    2.066862    0.619420
H      -1.024726   -0.261492   -0.048358
H       0.992665   -2.541015    0.228232
H       3.366130   -0.585930    0.341643
H       3.275651   -2.172933    1.133788
H       3.277903   -2.052488   -0.638346
H      -0.024798   -1.180945    1.969605
H       2.083385    0.648326    1.669103
