19

O       0.354150   -1.183147    1.586325
C       0.101638   -0.431920    0.409555
C      -1.362844   -0.504043    0.007566
C      -2.311009    0.247970    0.939419
C      -2.189693    1.699029    0.831171
C      -2.072850    2.890928    0.726871
C      -1.694374   -0.616180   -1.467235
C      -1.833102   -1.813119   -0.557672
O      -0.885970   -2.847919   -0.589252
H       0.206575   -2.105612    1.345795
H       0.368871    0.604772    0.638377
H       0.736062   -0.768060   -0.420124
H      -3.348679   -0.044625    0.736025
H      -2.092873   -0.064833    1.968476
H      -1.976794    3.945038    0.644979
H      -2.597756   -0.143744   -1.838894
H      -0.860695   -0.610865   -2.162045
H      -2.842417   -2.138596   -0.304760
H      -0.999072   -3.347504   -1.404192
