19

C      -0.049987    1.556321   -0.017550
C       0.028419    0.040131    0.000096
C       1.092259   -0.692636   -0.886027
C       1.087757   -1.808248    0.204766
C       0.692520   -0.688839    1.217261
C      -0.109714   -2.728927   -0.021160
O      -0.034877   -3.939396   -0.004750
C      -1.370800   -1.981311   -0.262181
C      -1.303015   -0.643073   -0.251715
H       0.932613    2.000710    0.168457
H      -0.406426    1.923832   -0.986728
H      -0.736978    1.926981    0.751912
H       0.804696   -0.961126   -1.905306
H       2.045657   -0.155850   -0.897020
H       1.988427   -2.397256    0.377006
H       1.575767   -0.151386    1.575377
H       0.050901   -0.953966    2.060910
H      -2.281718   -2.543545   -0.434287
H      -2.180278   -0.023302   -0.419559
