20

C      -1.037046    1.046429   -1.097243
C      -0.051682   -0.052465   -0.759814
O       1.281703    0.221017   -1.249259
C       1.877840   -0.317334   -0.045445
C       3.073457    0.478835    0.430593
C       0.508708   -0.274849    0.680929
C       0.296916    0.863002    1.668017
O       0.210827   -1.525677    1.270394
H      -0.710837    2.016152   -0.712371
H      -1.138172    1.132174   -2.183894
H      -2.026595    0.817878   -0.686124
H      -0.412276   -1.017661   -1.147311
H       2.160634   -1.370046   -0.194357
H       2.820582    1.528844    0.599754
H       3.469528    0.055074    1.359435
H       3.866402    0.439841   -0.322895
H       0.575418    1.830343    1.243697
H      -0.757885    0.926045    1.963556
H       0.894077    0.696344    2.569557
H      -0.597933   -1.435836    1.785246
