18

O       0.521579    0.483688    0.881700
C      -0.053499    0.198778   -0.379327
C      -1.396326   -0.477657   -0.225756
O      -2.313692    0.339259    0.467402
C      -1.923572   -1.439969   -1.259916
C      -1.523926   -1.930912    0.119392
C      -0.308693   -2.817826    0.340863
C      -0.627891   -4.237618    0.181178
N      -0.891843   -5.355311    0.054500
H      -0.181924    0.882361    1.408817
H      -0.186823    1.117222   -0.978149
H       0.655728   -0.432449   -0.922463
H      -2.608077    1.033569   -0.134324
H      -2.982639   -1.406087   -1.488894
H      -1.283236   -1.689046   -2.100826
H      -2.354281   -2.146287    0.783924
H       0.494040   -2.571003   -0.361414
H       0.099993   -2.658146    1.344939
