16

O      -0.088136    1.426801   -0.226224
C      -0.015597    0.057058    0.028624
C      -0.256295   -0.920903   -1.094176
C      -1.296146   -0.743917   -0.000547
C      -1.286111   -1.747343    1.133710
C       0.142496   -1.693881    1.703030
O       0.638302   -2.516327    2.425955
C       0.832773   -0.418387    1.193284
H       0.714993    1.688945   -0.689535
H      -0.498483   -0.488927   -2.058588
H       0.317151   -1.843294   -1.138892
H      -2.219531   -0.244509   -0.267259
H      -1.979487   -1.455428    1.933225
H      -1.538393   -2.773550    0.849376
H       1.883316   -0.620069    0.962398
H       0.806526    0.333183    1.993140
