20

C      -0.050433    1.520067   -0.056170
C       0.004948   -0.009286   -0.026377
C      -1.390010   -0.641788   -0.134785
N      -1.395677   -2.106614   -0.078519
C      -1.362315   -2.679789    1.195828
N      -1.041425   -3.880074    1.443188
C      -1.514533   -2.893456   -1.247462
N      -1.182611   -2.211691   -2.413117
O      -1.932231   -4.024812   -1.259747
H       0.950106    1.953445    0.026585
H      -0.496381    1.885497   -0.987813
H      -0.651689    1.910420    0.772283
H       0.645960   -0.375866   -0.839052
H       0.477973   -0.352590    0.901532
H      -2.012318   -0.272376    0.690251
H      -1.882958   -0.331073   -1.058319
H      -1.629210   -1.934502    1.957691
H      -1.111908   -4.051887    2.444961
H      -0.424963   -1.546807   -2.383374
H      -1.157653   -2.832990   -3.208074
