15

N       1.077029    0.825341   -0.596654
C       0.452471   -0.182614   -0.196780
O       0.878863   -1.481933    0.070707
C      -0.504119   -1.899438    0.240044
C      -1.090960   -1.195630    1.410020
C      -0.991676   -0.478509    0.058581
C      -2.133750    0.165731   -0.690041
C      -3.389529   -0.565627   -0.536329
N      -4.366484   -1.165816   -0.394413
H       2.073366    0.633729   -0.711124
H      -0.802988   -2.837808   -0.205255
H      -2.103563   -1.487860    1.673194
H      -0.453686   -0.901842    2.237837
H      -2.277883    1.193437   -0.335597
H      -1.889825    0.235926   -1.756108
