15

O      -0.039589    1.452533    0.009688
C       0.042648    0.036277    0.031518
C      -1.385163   -0.504474   -0.052166
C      -2.100374   -0.271947   -1.359286
C      -2.491991   -1.452691   -1.846503
N      -2.109995   -2.505171   -0.996634
C      -1.406389   -2.039079    0.097529
O      -0.906473   -2.712805    0.969965
H       0.854056    1.805284    0.051527
H       0.631752   -0.345205   -0.816678
H       0.500790   -0.337448    0.958177
H      -1.941724   -0.073379    0.791166
H      -2.265273    0.695937   -1.804833
H      -3.035845   -1.678894   -2.752616
H      -2.252798   -3.485759   -1.171665
