15

O       0.043902    1.369596    0.057965
C      -0.002915   -0.046582    0.010298
C      -1.457233   -0.462749   -0.083505
O      -2.049577   -0.093952   -1.337416
C      -1.378435   -0.325697   -2.477954
O      -1.902655   -0.244150   -3.554425
N      -0.031077   -0.671548   -2.339060
C       0.758655   -0.543612   -1.204147
N       2.011998   -0.744823   -1.120538
H       0.973805    1.623858    0.037024
H       0.449728   -0.499802    0.901378
H      -1.547891   -1.546680    0.056105
H      -2.048024    0.048974    0.677171
H       0.417039   -0.855803   -3.226319
H       2.423693   -1.011731   -2.017810
