19

C      -0.164386    1.504865   -0.041102
C       0.026259    0.025256   -0.016076
C       0.031209   -1.076902   -1.030132
C       1.307991   -1.697737   -0.457033
C       0.967363   -0.924580    0.846237
C      -0.359466   -1.550718    1.311856
O      -0.757633   -1.964558    2.367907
C      -1.050671   -1.104183    0.065119
C      -2.522005   -1.035669   -0.205108
H       0.738929    2.019056   -0.387837
H      -0.982939    1.780866   -0.714129
H      -0.406842    1.890660    0.955261
H      -0.283160   -1.026609   -2.066524
H       1.378404   -2.788979   -0.386456
H       2.199302   -1.298542   -0.948916
H       1.722634   -0.620274    1.565940
H      -3.065434   -0.737328    0.696701
H      -2.750209   -0.314426   -0.997065
H      -2.912346   -2.008387   -0.522978
