14

O      -0.083867    1.395994    0.006307
C      -0.005401    0.027262   -0.045401
C       0.594292   -0.747026   -1.274954
O       0.802328   -2.109429   -0.906751
C      -0.523966   -1.684091   -1.240035
C      -1.157506   -0.949486   -0.018656
C      -0.209159   -0.857445    1.175546
C       0.653389   -1.880063    1.710114
N       1.323874   -2.650107    2.253781
H       0.756304    1.742781    0.330972
H       1.175109   -0.322659   -2.084794
H      -1.050024   -2.218203   -2.020384
H      -2.215478   -0.757569    0.097796
H      -0.672312   -0.268545    1.964941
