22

C       0.021623    1.565802   -0.022174
C       0.125684    0.036805   -0.001077
C       0.693836   -0.547655   -1.295290
C       0.633766   -2.076960   -1.337993
C      -0.689218   -2.065124   -2.003359
C      -0.320775   -0.604700   -2.475211
C       0.453802   -1.320713   -3.604793
C       1.773857   -0.813956   -4.158042
N       0.489675   -2.568128   -2.758250
H       1.002601    2.027243   -0.180813
H      -0.639387    1.912695   -0.823477
H      -0.375733    1.947492    0.923374
H       0.765403   -0.269257    0.837297
H      -0.861233   -0.402307    0.193936
H       1.659798   -0.075774   -1.511505
H       1.040361   -2.789432   -0.631135
H      -1.606779   -2.620825   -1.863587
H      -0.997760    0.226394   -2.669226
H      -0.227507   -1.544971   -4.433376
H       2.513943   -0.630329   -3.375827
H       2.194951   -1.554115   -4.846162
H       1.624534    0.118010   -4.714779
