19

C       0.025957    1.532110   -0.127513
C       0.053322    0.077345   -0.076143
C       0.061448   -1.126316   -0.027582
C       0.084190   -2.594099   -0.014333
C      -1.332498   -3.160555    0.143531
O       0.578128   -3.111683   -1.257003
C       0.975286   -3.145156    1.104178
C       2.065808   -2.392027    1.732501
O       0.820826   -2.603087    2.409036
H       0.951653    1.934540   -0.553222
H      -0.806633    1.891488   -0.741882
H      -0.091449    1.958196    0.874748
H      -1.974178   -2.791176   -0.658904
H      -1.295122   -4.252548    0.090049
H      -1.749289   -2.861317    1.107575
H       1.394501   -2.641563   -1.459823
H       1.051183   -4.233068    1.062904
H       2.917398   -2.929665    2.146911
H       2.252302   -1.365023    1.426806
