18

C       0.170923    1.538904    0.150393
C      -0.097220    0.040203   -0.046068
C       0.602617   -0.525775   -1.249287
C       0.198638   -0.331545   -2.714363
O       0.631705   -1.683252   -3.047863
C       0.963286   -1.917947   -1.692712
C       2.067645   -0.985691   -1.221916
C       3.068354   -0.468035   -2.112080
N       3.864172   -0.033182   -2.830444
H       1.239673    1.733596    0.283261
H      -0.167180    2.119114   -0.714387
H      -0.355237    1.916475    1.031688
H       0.218189   -0.513238    0.846749
H      -1.175979   -0.134187   -0.148587
H      -0.884596   -0.238232   -2.845666
H       0.723247    0.429297   -3.299982
H       0.803173   -2.907438   -1.279137
H       2.422258   -1.198311   -0.216954
