22

C      -0.314141    1.592874    0.247926
C      -0.050569    0.089351    0.269798
C       0.796636   -0.651186   -0.767094
C       1.129098   -1.718151    0.199521
N       2.223717   -0.844903   -0.291988
C       2.291281   -0.212104    1.067337
C       2.837157    1.205346    1.170513
C       0.825919   -0.650183    1.336632
C       0.307505   -0.890634    2.731010
H       0.572360    2.192184    0.042887
H      -1.052588    1.827519   -0.526861
H      -0.732840    1.928164    1.203825
H      -1.023948   -0.418825    0.284865
H       0.650506   -0.725551   -1.837199
H       1.130657   -2.799579    0.151146
H       2.938097   -0.872128    1.659843
H       2.451961    1.862832    0.391018
H       2.599005    1.647684    2.144254
H       3.927277    1.187153    1.071496
H       0.200817    0.053553    3.278503
H      -0.674887   -1.375157    2.716549
H       0.988086   -1.529512    3.304741
