16

N      -0.133756   -1.139908    0.236039
C      -0.090734    0.004784    0.085502
C      -0.015137    1.455901   -0.117013
C       1.401281    1.971713   -0.088458
C       2.137696    2.403317    1.149002
C       1.886988    3.408370    0.050468
C       2.842429    3.171181   -1.162759
O       3.725512    2.081169   -0.864953
C       2.392496    1.790188   -1.293018
H      -0.497941    1.691669   -1.074306
H      -0.609859    1.947524    0.661089
H       1.513528    2.531711    2.028119
H       3.140239    2.044338    1.341492
H       1.297094    4.305055    0.187983
H       3.168880    3.899587   -1.894226
H       2.262070    1.137061   -2.147714
