13

F       0.249261    0.160308   -0.478228
C       0.114447    1.448826   -0.205094
C      -1.155556    2.008849   -0.206263
C      -1.270716    3.361522    0.083081
C      -0.112840    4.091382    0.359944
N       1.100368    3.550249    0.359701
C       1.230523    2.244207    0.082195
C       2.632833    1.737658    0.108335
O       2.978366    0.603405   -0.109747
H      -2.013590    1.385513   -0.429758
H      -2.241073    3.845041    0.094553
H      -0.170601    5.151649    0.589961
H       3.349261    2.548108    0.359490
