15

C       0.363772   -0.112381   -1.209289
C       0.140116    0.566779   -0.243312
C      -0.093274    1.399748    0.942085
N       1.018344    2.263828    1.326235
C       1.392249    3.286609    0.466752
N       2.628254    3.790137    0.486080
N       2.560277    4.778134   -0.410536
N       1.401183    4.953456   -1.013283
C       0.626165    4.010326   -0.474027
H       0.556958   -0.709443   -2.066160
H      -0.979583    2.025906    0.787009
H      -0.325719    0.760846    1.800687
H       1.821844    1.754862    1.670189
H       3.359351    5.353333   -0.617076
H      -0.399752    3.893580   -0.780501
