14

N       0.038214    1.081966   -0.550663
C      -0.025224   -0.075891   -0.085448
O       0.972051   -0.917962    0.398805
C       0.019243   -2.007889    0.637083
C      -0.634934   -1.887498    2.028483
O      -1.643411   -0.980626    1.522155
C      -1.140123   -1.070587    0.178598
C       0.423030   -3.270831    0.096497
C       0.742067   -4.344109   -0.339555
H       0.992954    1.445640   -0.542910
H      -1.084199   -2.816964    2.392634
H       0.003611   -1.438309    2.794938
H      -1.903055   -1.262605   -0.574324
H       1.029034   -5.289491   -0.730815
