16

O       0.786894   -1.652419   -0.183268
C      -0.095890   -0.820277   -0.895907
C      -1.447229   -0.691452   -0.202167
C      -2.402951    0.329417   -0.792199
C      -1.897991    1.753376   -0.631553
O      -1.882130    2.573682   -1.511829
C      -1.946495   -1.808969    0.606603
O      -1.338011   -0.664316    1.233518
H       0.742421   -1.357874    0.736163
H       0.325389    0.189507   -1.041147
H      -0.231795   -1.258526   -1.891042
H      -2.588427    0.137532   -1.853533
H      -3.359523    0.264642   -0.257952
H      -1.548285    1.996988    0.395954
H      -3.016078   -1.913170    0.778761
H      -1.360478   -2.722207    0.663009
