23

C      -0.032352    1.521506   -0.115379
C       0.106972    0.020801    0.040676
C       1.375362   -0.770094   -0.163791
C       2.596546   -0.016787    0.371343
C       1.913294    0.074379    1.772859
C       0.702130   -0.703341    1.224816
C      -0.058806   -1.741621    1.974090
C       0.580256   -2.613127    3.029483
C      -0.408737   -1.548389    3.432938
H       0.835860    2.065917    0.264321
H      -0.152608    1.792438   -1.170418
H      -0.912348    1.889859    0.423697
H      -0.756609   -0.519827   -0.345689
H       1.416014   -1.602154   -0.858532
H       3.495530   -0.636510    0.396273
H       2.846404    0.927992   -0.122925
H       2.469401   -0.481210    2.531207
H       1.709844    1.075341    2.167003
H      -0.823453   -2.231455    1.376115
H       0.272434   -3.651662    3.084648
H       1.625157   -2.450947    3.270694
H      -0.019514   -0.665287    3.929062
H      -1.392001   -1.851489    3.775605
