21

C      -0.004777    1.628495   -0.101117
C       0.052182    0.110336   -0.006110
C       1.061904   -0.636023   -0.903233
N       2.417707   -0.215344   -0.474074
C       1.702302   -1.288743    0.270541
C       0.759393   -0.566875    1.210059
C       0.993082   -0.056579    2.580200
N       0.128465   -1.219243    2.342047
C      -1.300151   -1.024110    2.541077
H       0.999952    2.049881   -0.017019
H      -0.432691    1.944114   -1.059477
H      -0.626043    2.055228    0.693586
H      -0.944309   -0.328389   -0.133219
H       0.887957   -1.019728   -1.900975
H       3.082270   -0.677835   -1.094569
H       2.121601   -2.279946    0.388580
H       1.929212   -0.253169    3.096348
H       0.511758    0.883440    2.849874
H      -1.657625   -0.015489    2.276729
H      -1.856610   -1.752258    1.941270
H      -1.537965   -1.202599    3.594419
