19

O       0.077481    1.427738    0.305367
C       0.040275    0.040046    0.033487
C      -1.385025   -0.451102   -0.105843
C      -2.421836    0.429937   -0.086757
C      -3.826970    0.094857   -0.075347
C      -4.388166   -0.981199   -0.656439
C      -3.592586   -1.910108   -1.539579
C      -2.544118   -2.579475   -0.689422
C      -1.538536   -1.894232   -0.116769
H       0.988412    1.722843    0.226879
H       0.589299   -0.194054   -0.894718
H       0.533031   -0.535590    0.836590
H      -2.165587    1.474791    0.055684
H      -4.472377    0.785867    0.463895
H      -5.443400   -1.189197   -0.502348
H      -4.239671   -2.649111   -2.017696
H      -3.104907   -1.329894   -2.335998
H      -2.610905   -3.653417   -0.536181
H      -0.768810   -2.457857    0.409417
