17

O       0.005096    1.378689   -0.065116
C       0.035518   -0.041984   -0.069186
C      -1.371395   -0.542486   -0.005695
C      -2.524378    0.209705    0.015427
N      -3.555845   -0.671807    0.062020
N      -3.155100   -1.955116    0.066244
C      -1.824175   -1.887921    0.032620
C      -0.994335   -3.134055    0.011300
O      -0.101729   -3.177616   -1.102218
H       0.909506    1.694479   -0.142819
H       0.528257   -0.434732   -0.971111
H       0.610508   -0.428702    0.789530
H      -2.672588    1.276508    0.001667
H      -4.540090   -0.467826    0.087455
H      -0.344889   -3.185849    0.892698
H      -1.662593   -4.005151    0.037948
H      -0.641011   -3.114727   -1.897833
