14

O       0.269092   -0.203393    0.351850
C       0.295449    0.761554   -0.365105
C       0.804638    2.127376    0.070076
N       0.699058    3.067536   -1.028094
C       1.075102    4.254985   -0.839331
N       1.051907    5.291832   -1.761219
C       1.545781    6.400912   -1.143181
N       1.886924    6.193905    0.081312
O       1.592184    4.812609    0.302034
H      -0.056040    0.731348   -1.421012
H       0.224178    2.436642    0.952788
H       1.839109    2.002392    0.425118
H       0.721273    5.196253   -2.704919
H       1.645395    7.362635   -1.623423
