25

C       3.973202   -0.171095    1.485574
O       2.972382   -1.092834    1.133031
C       3.090374   -1.551285   -0.196727
C       1.959720   -2.536507   -0.474256
C       1.983051   -3.043022   -1.902565
C       2.813443   -4.233870   -2.352022
C       3.698168   -5.030761   -1.415925
C       1.300356   -4.326828   -2.333757
C       0.536474   -5.216828   -1.374934
H       4.981778   -0.607875    1.402793
H       3.941450    0.731265    0.853407
H       3.800963    0.121412    2.524544
H       3.040386   -0.701800   -0.901184
H       4.069425   -2.036508   -0.351923
H       2.032521   -3.353099    0.249266
H       1.006739   -2.031837   -0.271786
H       1.923113   -2.234614   -2.629338
H       3.246197   -4.130709   -3.344652
H       3.282145   -5.120981   -0.409897
H       3.851244   -6.047031   -1.796613
H       4.685628   -4.565120   -1.319660
H       0.833577   -4.277473   -3.315071
H       1.001658   -5.279593   -0.388661
H      -0.484865   -4.847069   -1.229865
H       0.463953   -6.237615   -1.766964
