20

C      -0.003004    1.412762   -0.323231
N       0.013233   -0.009546   -0.103874
C       0.003985   -1.061217   -0.987958
O      -0.020190   -1.102652   -2.190936
C       0.036034   -2.076732    0.176174
C       0.044773   -0.827659    1.106827
C       1.151933   -0.679282    2.181605
C       0.090714   -1.053950    3.253035
C      -1.019621   -0.697186    2.226192
H       0.891578    1.897819    0.086170
H      -0.026710    1.577679   -1.403081
H      -0.887761    1.883138    0.122983
H      -0.850902   -2.709840    0.245409
H       0.934918   -2.695726    0.209099
H       2.040972   -1.306814    2.081921
H       1.469707    0.363532    2.281702
H       0.104298   -2.121855    3.485237
H       0.105317   -0.493531    4.189214
H      -1.350124    0.340298    2.339592
H      -1.901560   -1.339293    2.162892
