20

C       0.170939    1.489014    0.009541
N       0.053446    0.043720    0.000594
C       0.471105   -0.560861   -1.270710
C       1.053185   -1.951068   -1.005391
C       0.130936   -2.758473   -0.067588
C       0.469393   -2.117784    1.268908
C       1.837911   -1.498693    1.054789
O       2.266827   -1.772640   -0.259529
C       0.614621   -0.611897    1.160839
H       1.209770    1.852411   -0.100832
H      -0.417291    1.906662   -0.814963
H      -0.234859    1.890732    0.943773
H      -0.383576   -0.615698   -1.961002
H       1.256990    0.034491   -1.763884
H       1.306301   -2.457084   -1.938555
H      -0.920385   -2.651381   -0.349223
H       0.392471   -3.821000   -0.069703
H       0.170385   -2.587810    2.198158
H       2.648573   -1.506549    1.773743
H       0.489219   -0.036792    2.072360
