14

N       0.024684    1.402621    0.151997
C      -0.002763    0.022530    0.052666
C      -1.161248   -0.690023    0.035941
F      -2.328649   -0.045453    0.050609
C      -1.195846   -2.134006    0.000298
N      -2.288996   -2.804733   -0.013332
N       0.102991   -2.673202   -0.025959
N       1.275624   -2.022910   -0.017784
C       1.226605   -0.729260    0.022966
H       0.816051    1.854955   -0.280871
H      -0.851585    1.855165   -0.064115
H      -2.111725   -3.809208   -0.046324
H       0.192566   -3.677900   -0.053900
H       2.180688   -0.212659    0.039743
