19

C      -0.122323    1.594000   -0.178579
C      -0.079196    0.083185   -0.099148
C      -1.297522   -0.565908    0.535646
O      -1.406853   -0.335977    1.930722
C       0.633901   -0.714866   -1.177397
N       1.323424   -0.153467   -2.301502
C       1.248143   -0.616562    0.214735
C       2.440655    0.160486    0.383721
N       3.398709    0.802925    0.486347
H       0.746651    2.005039   -0.695610
H      -1.020021    1.919457   -0.717243
H      -0.143852    2.043879    0.819965
H      -2.201765   -0.231703    0.002041
H      -1.239992   -1.653915    0.423916
H      -1.597488    0.596508    2.070711
H       0.196847   -1.689094   -1.390333
H       0.703953    0.391196   -2.891104
H       2.100783    0.435552   -2.024800
H       1.200895   -1.495164    0.849124
