21

C      -0.307375    1.545546   -0.011635
C       0.043255    0.070475   -0.006868
C       1.370879   -0.578687   -0.375653
C       2.676452    0.174093   -0.313946
O       2.610527    1.550329    0.095946
C       2.954093    0.565370    1.077853
C       1.801741    0.096314    1.960431
C       0.823692   -0.677237    1.050038
C       0.257009   -1.963353    1.611521
H      -0.410525    1.913351   -1.038467
H      -1.272360    1.691263    0.487971
H       0.441354    2.161763    0.479498
H      -0.787218   -0.531530   -0.376134
H       1.344813   -1.435217   -1.042107
H       3.456149   -0.048016   -1.037712
H       3.954121    0.667561    1.494089
H       2.193877   -0.582276    2.726481
H       1.331340    0.933691    2.487923
H      -0.389524   -1.771277    2.476640
H      -0.344511   -2.489245    0.863191
H       1.052715   -2.643561    1.939013
