19

C       0.791390    1.343219    0.196553
C      -0.051423    0.067589    0.006697
C       0.145896   -0.904900    1.185242
O      -1.438322    0.412598   -0.115894
C       0.320887   -0.594302   -1.250173
C       0.669406   -1.143270   -2.261307
C       1.071098   -1.809941   -3.501917
C       2.255457   -2.658150   -3.352805
C       3.226831   -3.355097   -3.243759
H       1.858723    1.109057    0.234713
H       0.611005    2.035249   -0.628843
H       0.515043    1.835970    1.136227
H      -0.129946   -0.411820    2.125058
H      -0.485617   -1.785764    1.051739
H       1.188182   -1.226416    1.261416
H      -1.693343    0.843782    0.707687
H       0.235461   -2.417747   -3.875643
H       1.260836   -1.058379   -4.280704
H       4.085576   -3.971361   -3.143285
