16

N       0.036315    1.336190    0.023612
C      -0.144078    0.005774    0.362988
O       0.376622   -0.515226    1.331472
N      -0.959811   -0.697156   -0.504673
C      -0.998725   -2.132052   -0.397036
C      -1.987554   -2.770618    0.624649
N      -2.646334   -3.406169   -0.527202
C      -1.892943   -2.784400   -1.484565
O      -1.944082   -2.727093   -2.685218
H       0.432906    1.884311    0.771224
H      -0.694548    1.800314   -0.493650
H      -1.088104   -0.339088   -1.440660
H       0.001994   -2.569406   -0.327206
H      -1.543947   -3.470451    1.336480
H      -2.608169   -2.037322    1.145851
H      -3.479985   -3.969575   -0.605778
