15

C       0.098918    1.504624    0.058580
C       0.071619    0.007903    0.018170
C       0.026408   -0.815080   -1.087839
O      -0.004877   -0.559548   -2.422865
N       0.002600   -2.112757   -0.692169
C       0.036729   -2.175460    0.700407
C       0.079557   -0.881903    1.144818
O       0.112724   -0.515680    2.461798
H       1.053969    1.907493    0.422964
H      -0.063285    1.940003   -0.934516
H      -0.693076    1.915542    0.699322
H       0.092327    0.388554   -2.552103
H      -0.018765   -2.894501   -1.321394
H       0.023899   -3.111705    1.228828
H       0.174930    0.442416    2.508584
