15

N      -0.086767    1.505045    0.138082
C       0.036804    0.054206    0.018027
C       0.727708   -0.488389   -1.260073
C      -0.047259   -0.108481   -2.535442
C       0.595376   -0.616679   -3.744374
N       1.115269   -1.022207   -4.692966
C       0.754216   -0.462621    1.196820
N       1.343341   -0.881931    2.097313
H       0.813102    1.959310    0.016878
H      -0.724158    1.873148   -0.558381
H      -0.980387   -0.357744    0.062292
H       1.747549   -0.093405   -1.313485
H       0.810439   -1.577482   -1.192212
H      -1.069849   -0.503300   -2.492941
H      -0.129610    0.980672   -2.624435
