19

C      -0.224629    1.342320    0.040480
O       0.142202   -0.026984   -0.059070
C       0.738347   -0.512262    1.071280
C       0.842042   -1.922617    1.545712
C       2.347564   -1.803438    1.705778
C       2.204196   -0.227899    1.607910
C       2.009482    0.297335    3.004937
C       0.821144   -0.116242    3.469612
C       0.085511   -0.828532    2.395011
H       0.651367    1.980512    0.218453
H      -0.681966    1.618811   -0.911750
H      -0.945377    1.502666    0.853081
H       0.286914   -2.796619    1.228275
H       2.818046   -2.191501    2.614339
H       2.854458   -2.199560    0.822304
H       2.922240    0.280969    0.966485
H       2.781177    0.803999    3.571443
H       0.439791    0.018389    4.474347
H      -0.987702   -0.977488    2.426434
