18

C      -0.484016    1.241587    0.476423
N      -0.113908   -0.113277    0.122321
C      -1.018996   -0.992186    0.160056
N      -0.764890   -2.339851   -0.165477
C       0.515037   -2.762945   -0.547646
O       0.782183   -3.903933   -0.835448
C      -1.801984   -3.287509   -0.110719
N      -2.978442   -2.975353    0.225328
C      -3.970043   -4.031576    0.248013
H      -0.263281    1.909862   -0.363404
H      -1.545184    1.354534    0.746481
H       0.129681    1.577291    1.319812
H      -2.064155   -0.831061    0.435927
H       1.227772   -1.928383   -0.549063
H      -1.453258   -4.284968   -0.389092
H      -4.791559   -3.773618   -0.429685
H      -3.574303   -5.017662   -0.039160
H      -4.398760   -4.106223    1.253666
