16

C       0.421065    0.835273    1.301189
C       0.183332   -0.003791    0.058587
O       0.967837   -0.018008   -0.864884
C      -1.099639   -0.808582    0.055918
C      -1.533675   -1.690861   -1.142646
C      -0.418242   -2.717052   -0.831600
C      -1.131244   -2.321325    0.480124
O      -2.427395   -2.435439   -0.214095
H       1.414621    1.283087    1.263329
H      -0.333746    1.628013    1.364669
H       0.315322    0.227122    2.206657
H      -1.928284   -0.260399    0.511845
H      -1.947716   -1.377771   -2.100314
H      -0.633050   -3.732244   -1.165840
H       0.614301   -2.409680   -0.988719
H      -1.054716   -2.744034    1.482629
