19

C      -0.038669    1.633286   -0.015204
C       0.156005    0.114845    0.005227
C       0.623753   -0.419433   -1.367093
C       0.314122   -1.868483   -1.611552
C       0.573227   -2.874774   -0.762620
C       1.256338   -2.780482    0.516885
C       1.522117   -1.707734    1.290696
C       1.107806   -0.297080    1.134339
O       1.502408    0.522154    1.945398
H       0.893207    2.141584   -0.282375
H      -0.803367    1.908759   -0.748036
H      -0.339317    2.003287    0.966096
H      -0.808039   -0.365581    0.232799
H       0.152994    0.182062   -2.150646
H       1.707812   -0.251034   -1.471810
H      -0.143020   -2.115123   -2.566531
H       0.315860   -3.883894   -1.073560
H       1.624235   -3.734338    0.891754
H       2.098894   -1.856827    2.199253
