19

O      -0.077297    1.362765    0.065293
C       0.042995   -0.026737    0.053809
C       0.926177   -0.756194    1.064429
C       0.564983   -2.136504    0.496697
C      -0.973702   -2.152053    0.630624
C      -1.337592   -0.785959   -0.006831
C      -1.181497   -0.866096   -1.547283
C       0.340221   -0.754541   -1.312840
O       0.897369   -2.008537   -0.900445
H       0.795452    1.743464   -0.083473
H       1.991221   -0.526762    0.960755
H       0.609556   -0.608146    2.100113
H       1.092720   -3.004370    0.891708
H      -1.430990   -2.997394    0.109626
H      -1.264068   -2.200538    1.685421
H      -2.216150   -0.296542    0.413864
H      -1.539469   -1.763418   -2.058235
H      -1.570740    0.028965   -2.040006
H       0.986000   -0.305554   -2.071953
