17

O       0.051946    1.022881   -0.831408
C      -0.120461    0.017036    0.177261
C      -1.488590   -0.578832    0.145881
O      -2.542903   -0.086136    0.980315
C      -3.323189   -1.221292    0.489016
C      -3.620963   -0.857158   -0.990500
C      -2.116606   -1.050686   -1.178676
O      -1.387045   -1.081018   -2.340783
C      -2.019594   -1.976191    0.038458
H      -0.561727    1.738471   -0.632037
H       0.623977   -0.750555   -0.048953
H       0.095124    0.414283    1.177693
H      -4.086228   -1.562308    1.183552
H      -4.190169   -1.641810   -1.494972
H      -4.066337    0.126796   -1.170678
H      -0.836925   -0.283336   -2.344118
H      -1.600747   -2.956908    0.217114
