21

C       2.019637   -0.278887   -3.337550
C       1.854068   -0.739787   -1.904883
O       2.802310   -0.981183   -1.190706
C       0.417677   -0.902024   -1.393154
C       0.014503   -2.370924   -1.248368
C       0.793660   -3.168563   -0.218540
C      -1.464013   -2.697850   -1.402684
C      -0.477257   -3.099578   -2.471963
O      -0.469001   -2.405945   -3.690253
H       1.447289   -0.934066   -4.001571
H       1.601279    0.729089   -3.450491
H       3.075485   -0.269123   -3.610977
H       0.363797   -0.425780   -0.407256
H      -0.278364   -0.394270   -2.063693
H       0.621346   -2.767697    0.786988
H       0.478293   -4.216783   -0.216707
H       1.868291   -3.126323   -0.409264
H      -1.894041   -3.466709   -0.768773
H      -2.134123   -1.879245   -1.644944
H      -0.217248   -4.154777   -2.556177
H      -1.256892   -2.656179   -4.183633
