20

C      -0.065280    1.638631   -0.155979
N       0.072644    0.199995    0.010965
C       1.303693   -0.528039   -0.234200
C       2.639291    0.212960   -0.293619
C       2.806891    0.935732    1.067212
C       1.693114    0.401010    1.975769
C       1.874124    0.153351    3.411912
O       1.146013    1.295605    2.957370
C       0.736563   -0.416792    1.150425
H       0.836433    2.236155    0.031744
H      -0.391728    1.835479   -1.182381
H      -0.846375    1.992800    0.522450
H       1.197026   -1.427866   -0.835745
H       3.436331   -0.521639   -0.445997
H       2.687049    0.906361   -1.140179
H       3.794176    0.751936    1.500102
H       2.701633    2.020571    0.976776
H       1.282030   -0.611135    3.915315
H       2.839484    0.365153    3.871814
H       0.180292   -1.208673    1.646180
