16

C       0.718553    0.842644    0.276926
N      -0.372164    0.361598   -0.569817
C       0.051264   -0.538771   -1.615609
C       0.470335   -1.926220   -1.141582
O       0.292029   -2.373433   -0.041632
O       1.055983   -2.618418   -2.172520
C       1.451300   -3.915130   -1.944628
N       1.987200   -4.541046   -2.893864
H       1.296449    0.046088    0.770481
H       1.407447    1.441505   -0.329449
H       0.306987    1.495882    1.051132
H      -1.063490   -0.105415    0.007748
H      -0.759215   -0.690513   -2.341798
H       0.880383   -0.100987   -2.182331
H       1.241772   -4.249483   -0.928400
H       2.230000   -5.483640   -2.591689
