17

C      -0.013420    1.505088    0.012712
C       1.429384    2.057790    0.041770
N       2.229642    1.617176    1.192668
C       1.926362    0.320304    1.591740
C       0.972254   -0.457610    1.021868
C      -0.033286   -0.043517    0.013492
O       1.040700   -1.694187    1.623967
C       2.026552   -1.557340    2.539181
N       2.597118   -0.394651    2.573496
H      -0.557211    1.870454    0.891538
H      -0.528284    1.890396   -0.872744
H       1.946071    1.736414   -0.873116
H       1.416997    3.150726    0.032203
H       2.269510    2.277659    1.957743
H      -1.034139   -0.410208    0.268993
H       0.195744   -0.433887   -0.987946
H       2.246454   -2.421872    3.145621
