17

C       0.725522    1.398796   -0.045302
C      -0.083056    0.112292    0.059091
C       0.373297   -1.011518   -0.932467
C       1.125280   -1.627015    0.229404
N       2.188331   -2.296804    0.389760
O       2.708786   -2.739957   -0.838276
C       0.365659   -0.817086    1.257799
O       1.041197   -0.286962    2.362394
H       1.801491    1.192352   -0.090384
H       0.459224    1.955261   -0.949336
H       0.547926    2.041077    0.821917
H      -1.153827    0.329715    0.047086
H      -0.444824   -1.638877   -1.298150
H       0.989654   -0.708539   -1.782224
H       3.501782   -3.213545   -0.564377
H      -0.500738   -1.368336    1.643658
H       1.977480   -0.245618    2.139706
