18

C      -0.087742    1.480062    0.191992
C      -0.024023   -0.000560    0.000387
C      -0.012924   -0.749353   -1.155397
C       0.075549   -2.121662   -0.792585
C       0.117301   -2.175323    0.577635
N       0.064505   -0.884927    1.062407
C      -0.003123   -0.527610    2.457774
C      -1.429745   -0.237512    2.926187
O      -1.693649    0.490207    3.844532
H       0.804459    1.877635    0.692743
H      -0.158185    1.966762   -0.783237
H      -0.956433    1.799806    0.780925
H      -0.056110   -0.345750   -2.156015
H       0.114127   -2.968567   -1.460134
H       0.188711   -3.010174    1.257133
H       0.376316   -1.366629    3.053364
H       0.623920    0.339173    2.684661
H      -2.213191   -0.771898    2.342816
