16

C       0.100889   -1.120060   -0.015102
C       0.035055    0.081502   -0.023524
C      -0.053815    1.504971   -0.033558
C      -1.147683    2.254779   -0.779876
C      -0.755074    3.659594   -0.396397
C       0.715071    3.780923   -0.224684
C       1.229848    2.357643    0.024961
C       0.314035    2.311043    1.207113
N      -0.175183    3.721673    0.984669
H       0.159692   -2.180075   -0.008201
H      -1.104588    2.092942   -1.861389
H      -2.144175    1.981115   -0.420045
H      -1.357907    4.518211   -0.669489
H       1.313184    4.654888   -0.453061
H       2.220193    1.955941   -0.130090
H       0.409527    1.903450    2.203761
