11

O      -0.068318    1.277379    0.010121
C       0.056244   -0.038888    0.002177
N       1.229683   -0.596370   -0.007230
C       1.202640   -1.946166   -0.014442
F       2.396035   -2.503226   -0.023569
C       0.090862   -2.727257   -0.012773
C      -1.194910   -2.103693   -0.003042
O      -2.295600   -2.556630    0.001328
O      -1.109749   -0.637821    0.004975
H       0.827552    1.645355    0.007365
H       0.142401   -3.805445   -0.018552
