19

C       0.026983    1.532058   -0.179918
O       1.342323    1.629239    0.412455
C       1.455752    0.207673    0.543561
C       0.895795   -0.296576    1.922263
C      -0.377667   -0.659319    1.176448
C      -1.305384   -1.598600    1.021947
C      -1.756970   -1.631701   -0.436470
C      -0.598328   -0.897647   -1.195070
C       0.028527   -0.012405   -0.114381
H      -0.739502    2.056833    0.404503
H       0.030928    1.928157   -1.204058
H       2.410766   -0.189213    0.189485
H       1.409978   -1.141728    2.388611
H       0.834883    0.525937    2.639795
H      -1.647400   -2.313482    1.761612
H      -1.893334   -2.657793   -0.794763
H      -2.720589   -1.124718   -0.585409
H       0.124689   -1.637555   -1.555544
H      -0.947102   -0.333303   -2.065586
