17

O       0.027438   -0.106655   -0.063593
C       0.003209    1.102915   -0.018589
N      -1.122114    1.907598    0.050768
C      -0.829669    3.327051   -0.038587
C      -1.467869    4.153643    1.105787
C      -0.371026    4.227210    2.140091
C       0.798973    3.792767    1.678466
C       0.712891    3.336745    0.236632
N       1.098098    1.958554   -0.037240
H      -1.997207    1.520956   -0.261546
H      -1.079241    3.732426   -1.026093
H      -1.756677    5.155427    0.760627
H      -2.378311    3.674920    1.482902
H      -0.541187    4.615994    3.138236
H       1.731038    3.774851    2.232615
H       1.253553    4.018564   -0.430916
H       1.974439    1.585782    0.291666
