18

O       0.134929    0.315477   -1.148701
C       0.088763    1.220359   -0.368282
C      -1.010777    1.800472    0.533140
C      -0.112050    3.062462    0.744100
C       0.352337    3.432047    2.169762
C       1.619198    2.626944    2.407083
N       1.428703    1.176642    2.217271
C       2.053066    1.979095    1.138199
C       1.083926    2.336993    0.022070
H      -1.979235    1.950817    0.048141
H      -1.143241    1.201356    1.437724
H      -0.498419    3.926427    0.201575
H       0.589298    4.500380    2.229208
H      -0.415371    3.223502    2.922579
H       2.339014    2.963973    3.147196
H       2.151378    0.664432    2.715922
H       3.097764    1.806713    0.903994
H       1.587292    2.839021   -0.807742
