18

C       0.868199    0.393334   -0.323127
C      -0.391237    0.463422    0.513849
O      -0.503424    1.202098    1.463968
C      -1.573392   -0.414229    0.088005
N      -1.144697   -1.652508   -0.549384
C      -1.072714   -2.840444    0.286597
C      -2.149950   -2.713784   -0.750719
C      -3.520492   -2.538495   -0.355386
C      -4.678365   -2.387172   -0.066825
H       1.330173   -0.593921   -0.220755
H       0.632472    0.508614   -1.385994
H       1.565121    1.166417    0.002465
H      -2.223320   -0.554099    0.961886
H      -2.146065    0.165366   -0.649448
H      -0.232285   -3.505084    0.106299
H      -1.385811   -2.755979    1.325447
H      -2.017322   -3.249981   -1.687754
H      -5.698669   -2.259214    0.198974
