19

C      -1.147405    1.423400    0.425471
C      -0.444709    0.093475    0.294391
N       0.918786    0.059312   -0.267290
C       0.697846   -0.432977    1.097172
C       1.532190    0.217403    2.200124
C       1.145823   -0.335421    3.576945
O       2.893921   -0.136222    1.984527
C       1.440276    1.697580    2.235563
N       1.424033    2.850420    2.311768
H      -0.458309    2.235256    0.650308
H      -1.655679    1.657810   -0.515873
H      -1.908522    1.380571    1.212004
H      -1.108434   -0.703264   -0.044467
H       1.034515   -0.708786   -0.921572
H       0.705978   -1.513326    1.240176
H       1.267088   -1.421613    3.570917
H       1.797380    0.085266    4.345050
H       0.108040   -0.089076    3.813274
H       3.105933    0.133405    1.080788
