20

C      -0.719302    1.248382    0.006939
C       0.106651   -0.037634   -0.084843
C       1.261182    0.003636   -1.060021
C       2.314691   -0.683670   -0.621799
C       2.047592   -1.299360    0.728725
C       0.784390   -0.533002    1.232036
C       1.203587    0.609275    2.163028
O      -0.156481   -1.377733    1.892247
H      -0.101572    2.119024    0.248103
H      -1.212847    1.449924   -0.949616
H      -1.499610    1.157356    0.768931
H      -0.578777   -0.845453   -0.382367
H       1.193122    0.511326   -2.016667
H       3.242583   -0.829082   -1.164138
H       1.809492   -2.367968    0.638336
H       2.893685   -1.216984    1.422250
H       1.898333    1.291732    1.663870
H       0.337827    1.179561    2.507942
H       1.717324    0.203253    3.043332
H       0.199044   -1.598232    2.759570
