21

C       0.245008    1.719580    0.041691
C       0.074830    0.201481   -0.103962
C       0.698925   -0.534650    1.069202
C      -0.097891   -1.182248    2.173619
O      -1.424703   -1.565809    1.880508
C      -1.442788   -2.797796    1.189739
C      -1.127592   -2.818276   -0.283160
C      -0.042818   -3.119488    0.736585
C       0.827172   -2.036905    1.336063
H       1.303466    2.002398    0.055190
H      -0.231745    2.250626   -0.787916
H      -0.207298    2.076865    0.972790
H      -0.992825   -0.027286   -0.155606
H       0.522732   -0.125988   -1.050174
H       1.578009   -0.017065    1.453792
H       0.051380   -0.927994    3.219094
H      -2.136329   -3.516434    1.615292
H      -1.508094   -3.671185   -0.837177
H      -1.105213   -1.898182   -0.846247
H       0.350837   -4.127883    0.784288
H       1.782238   -2.368818    1.726673
