17

N      -0.224999    1.177453    0.385211
C      -0.145720   -0.218258   -0.016836
C      -1.562080   -0.794110   -0.133701
O      -2.174046   -0.891015    1.144944
C      -2.899019    0.166406    1.579877
O      -3.361436    0.211356    2.677660
C       0.631672   -0.480632   -1.339262
C       1.978953    0.077165   -1.285334
N       3.035856    0.537520   -1.205043
H       0.672645    1.514920    0.715919
H      -0.498028    1.770464   -0.393835
H       0.358695   -0.762230    0.788617
H      -2.167821   -0.170841   -0.807937
H      -1.540690   -1.809476   -0.538632
H      -3.029385    0.943330    0.805912
H       0.698487   -1.555533   -1.543506
H       0.098284   -0.026491   -2.184341
