21

C      -0.206548    1.646264   -0.041597
C       0.012173    0.141012   -0.020634
C       0.823559   -0.620263   -1.104357
C       1.973041    0.133986   -1.783149
C       3.151714    0.403585   -0.835250
O       2.777281    1.068759    0.363931
C       2.233016    0.233755    1.371311
C       0.996857   -0.556154    0.950468
O       1.331032   -1.522246   -0.082228
H       0.733397    2.196980   -0.084502
H      -0.821210    1.932124   -0.902908
H      -0.746902    1.965256    0.856878
H      -0.954793   -0.363702    0.071542
H       0.224523   -1.159589   -1.845945
H       2.353326   -0.456484   -2.626107
H       1.593578    1.074131   -2.201498
H       3.651013   -0.545024   -0.597540
H       3.877552    1.058932   -1.327341
H       2.989500   -0.487691    1.722234
H       1.983952    0.898397    2.206527
H       0.566644   -1.046949    1.832784
