19

C      -0.200341    1.633640   -0.075266
C       0.004946    0.118075   -0.012424
C       0.572175   -0.444163   -1.311598
O       1.954056   -0.088540   -1.480134
C       2.797934   -0.590204   -0.525481
N       4.006624   -0.873323   -0.763393
C       2.222412   -0.743433    0.844530
C       1.922415    0.498976    1.618075
N       0.838669   -0.338780    1.126639
H       0.695405    2.154258   -0.424715
H      -1.012107    1.865556   -0.771918
H      -0.474347    2.029325    0.906502
H      -0.978374   -0.347274    0.135713
H       0.478661   -1.537404   -1.330035
H       0.053053   -0.038777   -2.183442
H       4.217418   -0.705559   -1.749584
H       2.573759   -1.623745    1.373136
H       2.056483    0.503199    2.696561
H       2.135488    1.445938    1.130523
