17

N       0.361397    0.993401    0.332952
C      -0.166448    0.129625   -0.579297
O       0.398551   -0.157191   -1.617364
C      -1.504329   -0.479253   -0.189977
C      -2.377984   -0.946866   -1.389208
N      -2.344502   -2.304532   -0.834597
C      -1.424727   -1.982322    0.251787
C      -2.670746   -3.516101   -1.336415
O      -2.373092   -4.573462   -0.818967
H       1.282204    1.364253    0.162820
H      -0.086782    1.194667    1.209152
H      -2.044202    0.141754    0.526908
H      -3.376830   -0.503583   -1.447356
H      -1.857273   -0.845357   -2.345715
H      -0.438315   -2.441812    0.131849
H      -1.809210   -2.205458    1.251170
H      -3.262601   -3.432495   -2.271315
