20

C       0.142871    1.545483   -0.260154
C       0.001018    0.048394   -0.060743
C      -1.253249   -0.563541   -0.655320
C       1.277853   -0.798313   -0.069596
C       0.540352   -0.544575    1.200459
C       0.970221    0.075986    2.525880
C       0.215042   -1.096193    3.120957
N      -0.027090   -1.499613    4.282157
O      -0.146672   -1.621685    1.892892
H       1.054020    1.934012    0.205225
H       0.186360    1.790285   -1.327574
H      -0.709840    2.083838    0.169548
H      -1.263039   -0.442568   -1.744270
H      -1.327852   -1.629143   -0.426624
H      -2.150196   -0.075827   -0.256956
H       1.212555   -1.798656   -0.485196
H       2.233581   -0.305069   -0.219200
H       2.042019    0.076731    2.733173
H       0.549752    1.055989    2.760143
H      -0.583898   -2.355804    4.267777
