17

C      -0.058023    1.583678    0.013127
C       0.046997    0.079580    0.119540
N       1.206485   -0.725857   -0.302880
C       2.449418    0.029758    0.089886
C       2.072861    0.039035    1.588671
C       0.770948   -0.667359    1.185986
C       0.199981   -1.765257    1.892751
C      -0.277446   -2.673971    2.521410
H       0.788065    2.113406    0.454860
H      -0.135255    1.885213   -1.037236
H      -0.964403    1.923310    0.524277
H      -0.862238   -0.429135   -0.195226
H       3.323311   -0.583272   -0.135282
H       2.560252    0.995791   -0.411045
H       2.717385   -0.603599    2.189024
H       1.963971    1.001849    2.096048
H      -0.701128   -3.480997    3.066000
