20

C      -0.181494    1.661124   -0.140324
C      -0.081979    0.138478   -0.166427
C      -1.272261   -0.513367    0.541653
O      -1.304202   -0.160336    1.910686
C       0.533980   -0.779735   -1.160360
C       1.875506   -0.417868   -1.820213
C       2.414617    0.923294   -1.419512
C       2.407218   -0.210003   -0.421442
N       1.114999   -0.660836    0.234069
H      -0.343949    2.084903   -1.135263
H      -1.024605    1.941019    0.495826
H       0.704979    2.123866    0.295694
H      -2.209639   -0.154063    0.102923
H      -1.227501   -1.604004    0.413705
H      -0.451377   -0.438445    2.267327
H       0.023948   -1.694831   -1.452574
H       2.286272   -1.008465   -2.627981
H       3.416273    1.103657   -1.802239
H       1.812335    1.815568   -1.363465
H       3.316417   -0.569603    0.042769
