16

C       0.126288    1.323036   -0.041558
O      -0.017565   -0.088439    0.075166
C      -1.325862   -0.534033   -0.009514
O      -1.857038   -0.406436   -1.329614
C      -1.784364   -1.592099   -2.034549
N      -2.098446   -1.712152   -3.246387
C      -1.324353   -2.703793   -1.123988
C      -1.301107   -2.057100    0.248587
O      -1.283572   -2.576173    1.327373
H       1.186265    1.541402    0.096361
H      -0.195505    1.675260   -1.027724
H      -0.454964    1.840785    0.733966
H      -1.994571    0.012573    0.667759
H      -2.388648   -0.813005   -3.635340
H      -1.972564   -3.579947   -1.172367
H      -0.310466   -3.026606   -1.387214
