23

C      -0.010504    1.470235    0.033581
C       0.012362   -0.052059   -0.005305
C       0.210638   -0.645084   -1.450185
C      -1.113478   -1.397391   -1.312317
C      -1.258786   -2.184296   -0.024637
C      -0.187574   -2.914402    0.770759
C       1.143843   -2.152368    0.905065
C       0.949657   -0.636733    1.063219
C      -1.399783   -0.693982    0.018201
H       0.976614    1.885855   -0.200052
H      -0.726608    1.874023   -0.690427
H      -0.299553    1.834417    1.026931
H       0.134855    0.147597   -2.200133
H       1.115562   -1.222833   -1.659157
H      -1.800747   -1.577120   -2.131650
H      -2.219831   -2.695944    0.000967
H      -0.600900   -3.088980    1.774042
H      -0.004269   -3.907838    0.342846
H       1.705744   -2.548301    1.758147
H       1.765688   -2.343175    0.024448
H       1.926684   -0.138011    1.018734
H       0.530477   -0.410813    2.054070
H      -2.297942   -0.185269    0.351035
