17

C      -0.071947    1.482386   -0.021631
C      -0.070003   -0.035209    0.001099
O      -0.090326   -0.660766    1.042955
C      -0.047374   -0.727250   -1.303503
C      -0.029347   -2.047387   -1.549499
C      -0.010610   -2.080659   -3.082629
C       1.092145   -1.022474   -3.401943
C      -0.034892   -0.169129   -2.745996
O      -1.003403   -1.049592   -3.406464
H       0.798095    1.863571   -0.568878
H      -0.963405    1.854808   -0.539703
H      -0.058362    1.862392    1.000161
H      -0.021726   -2.874896   -0.855834
H      -0.134005   -3.020820   -3.616813
H       2.058946   -1.097319   -2.900054
H       1.192593   -0.838331   -4.473659
H      -0.184750    0.892988   -2.931696
