19

C      -0.027600    1.507542    0.374308
C       1.448409    1.644729   -0.110589
C       1.460327    0.139767   -0.518166
C      -0.026336    0.001609   -0.029821
C      -0.708077   -0.368230   -1.334876
C      -0.050898    0.408222   -2.516250
O      -0.243288   -0.730653   -3.424112
C       0.225625   -1.311977   -2.161017
C       1.293444   -0.182252   -1.992334
H      -0.156943    1.679293    1.445159
H      -0.758871    2.124053   -0.155821
H       1.612376    2.344402   -0.934879
H       2.152300    1.893993    0.686501
H       2.216226   -0.475241   -0.024919
H      -0.231853   -0.702773    0.779204
H      -1.783047   -0.542232   -1.378606
H      -0.269970    1.404741   -2.901287
H       0.342792   -2.395399   -2.110798
H       2.147253   -0.177037   -2.669630
