17

C       0.066131    1.572512    0.134738
C       0.107665    0.043241   -0.000388
C       0.760314   -0.403300   -1.270800
N       0.462508    0.041119   -2.487277
C       1.277690   -0.634325   -3.340270
C       2.097563   -1.512852   -2.654033
N       1.740041   -1.338876   -1.323464
C       3.120211   -2.440476   -3.091253
O       3.452310   -2.613051   -4.244636
H       1.075569    1.990611    0.190836
H      -0.432431    2.012696   -0.731449
H      -0.476678    1.862631    1.038594
H       0.629861   -0.404296    0.853302
H      -0.916604   -0.349780    0.022093
H       1.254576   -0.473408   -4.407261
H       2.140620   -1.823989   -0.536479
H       3.604286   -3.012099   -2.263069
