15

O      -0.015934    1.395772   -0.081389
C       0.032586   -0.006855    0.042385
C      -1.363278   -0.658273    0.077694
N      -2.185598   -0.267159   -1.081575
C      -1.506613   -1.581184   -1.076211
C      -0.185216   -1.588814   -1.829632
O       0.177713   -0.332345   -2.405706
C       0.747777   -0.685368   -1.139823
H      -0.548381    1.556329   -0.872919
H       0.570123   -0.224007    0.971454
H      -1.847021   -0.830193    1.033592
H      -3.169394   -0.396258   -0.857169
H      -2.097354   -2.489482   -1.033669
H       0.122112   -2.471556   -2.383426
H       1.828471   -0.806579   -1.132853
