14

N       0.090670   -1.061401    0.004159
C       0.011361    0.092034   -0.001255
C      -0.055050    1.524274   -0.033483
N      -1.173535    2.185238    0.617827
C      -1.187445    3.351148    0.106161
N      -0.147808    3.665467   -0.850125
C       1.100284    3.759794    0.062221
C       1.322809    2.276240   -0.123704
C       0.345141    2.298282   -1.258885
H      -1.868806    4.135569    0.418151
H       1.857617    4.357805   -0.446665
H       0.909456    4.160000    1.062550
H       2.236418    1.710154   -0.000191
H       0.364921    1.960500   -2.286955
