13

O      -0.157579    1.379957   -0.119694
C       0.011828    0.004329   -0.086188
C      -0.325770   -0.691014    1.205457
O      -0.728302    0.146259    2.239812
C      -1.300357   -0.794536    0.025960
O      -2.458648   -0.034570    0.172708
C      -1.445338   -2.039674   -0.676945
N      -1.518320   -3.050087   -1.235754
H      -0.183157    1.668224    0.807291
H       0.794198   -0.376242   -0.734104
H       0.228300   -1.571473    1.514635
H      -1.689857    0.246121    2.156522
H      -2.277635    0.816848   -0.256666
