15

O       0.317132    1.263629   -0.460667
C       0.051007   -0.052282   -0.046053
C       0.170101   -0.390548    1.477293
C      -1.317008   -0.785821    1.489959
O      -2.172333    0.354167    1.749877
C      -2.462842    0.514210    0.338725
C      -1.436390   -0.552087   -0.044289
H      -0.060410    1.866696    0.188423
H       0.684640   -0.688655   -0.668674
H       0.859093   -1.214238    1.684811
H       0.413653    0.450375    2.132719
H      -1.637943   -1.681259    2.027855
H      -3.501189    0.240514    0.112368
H      -2.282461    1.535631   -0.019147
H      -1.713887   -1.303982   -0.781362
