23

C      -0.496378    1.500968    0.270662
C       0.095734    0.130974   -0.083199
C       0.842331   -0.475974    1.087377
C       0.152816   -1.413377    2.044380
O      -1.159766   -1.794675    1.755261
C       1.258675   -1.942566    1.157566
C       0.892900   -2.941021    0.087699
O       0.242527   -4.050255    0.712294
C      -0.092316   -5.070840   -0.201763
H       0.285206    2.206680    0.574008
H      -1.023968    1.935486   -0.584206
H      -1.207463    1.412741    1.097842
H      -0.716456   -0.536151   -0.383420
H       0.769409    0.231316   -0.944231
H       1.556545    0.203402    1.547887
H       0.365319   -1.310419    3.108132
H      -1.135482   -2.752497    1.623503
H       2.204203   -2.146862    1.650751
H       0.225229   -2.507577   -0.668886
H       1.793371   -3.293687   -0.438836
H      -0.581127   -5.869110    0.361779
H      -0.779949   -4.711713   -0.983282
H       0.803521   -5.479127   -0.694012
