25

C       0.224193    1.586746   -0.318126
C      -0.001665    0.115600   -0.041908
C       1.149937   -0.857716    0.005495
C       0.373932   -0.557519    1.265069
C       0.999718    0.185698    2.426871
C       1.874354   -0.671733    3.376080
C       2.398761    0.208077    4.521360
C       1.112140   -1.874598    3.938281
O       2.981820   -1.238538    2.665115
H       1.178223    1.940196    0.083727
H       0.239149    1.777505   -1.397126
H      -0.568729    2.206593    0.116277
H      -0.914814   -0.268050   -0.491068
H       1.046837   -1.832990   -0.457511
H       2.151228   -0.444716   -0.066344
H      -0.320502   -1.334602    1.572727
H       1.627762    1.004583    2.052661
H       0.211521    0.663666    3.024835
H       1.581753    0.593380    5.140123
H       3.074767   -0.368972    5.158742
H       2.951869    1.070449    4.129143
H       0.837252   -2.564055    3.137059
H       1.742535   -2.418312    4.647464
H       0.202848   -1.554941    4.456324
H       3.525286   -0.512206    2.341572
