16

C      -0.485845    1.489605    0.003654
C      -0.008626    0.050143   -0.010490
C       1.049409   -0.477699   -1.024353
C       1.786106   -1.032086    0.192080
C       2.191825    0.049421    1.123479
C       2.608984    1.349933    0.662287
N       2.993964    2.381781    0.306957
N       0.793707   -0.458738    1.177888
H       0.330936    2.211104   -0.031475
H      -1.131758    1.667937   -0.862933
H      -1.076592    1.677449    0.906214
H      -0.880349   -0.610075   -0.034346
H       0.665067   -1.241807   -1.700751
H       1.601838    0.266699   -1.603988
H       2.188680   -2.034123    0.299383
H       2.732011   -0.265180    2.012370
