17

C      -0.615736    0.363616    0.440072
O       0.376229    0.155050    1.432856
C       1.576030   -0.413423    0.930323
C       1.368342   -1.911884    0.697477
O       0.958776   -2.362082   -0.351902
N       1.687285   -2.706774    1.790035
C       1.056830   -2.614700    3.096937
C       0.878813   -3.821644    2.219427
H      -0.918160   -0.570889   -0.047645
H      -1.476292    0.806521    0.946814
H      -0.257573    1.057871   -0.334452
H       1.873376    0.053372   -0.018079
H       2.345743   -0.237201    1.686137
H       1.726577   -2.662934    3.951216
H       0.222389   -1.927425    3.197075
H      -0.074726   -3.957707    1.716595
H       1.415303   -4.736491    2.453084
