21

C      -0.015196    1.548459    0.078282
C       0.019854    0.046555   -0.009360
C      -0.023409   -0.593407   -1.179759
C      -0.019582   -2.105584   -1.334985
C      -0.345560   -2.807095    0.003270
C       0.455183   -2.175052    1.143529
C       0.097705   -0.692485    1.308152
C      -0.933334   -2.528096   -2.396908
C      -1.692260   -2.872225   -3.263637
H       0.890283    1.938574    0.560986
H      -0.103679    2.011714   -0.907860
H      -0.861915    1.886108    0.690374
H      -0.071725   -0.025174   -2.105125
H       0.994165   -2.414880   -1.638790
H      -1.419254   -2.705503    0.200165
H      -0.136164   -3.877561   -0.083941
H       0.275378   -2.713730    2.079894
H       1.527517   -2.269340    0.927890
H       0.829601   -0.197005    1.959858
H      -0.866573   -0.591475    1.829374
H      -2.358266   -3.176868   -4.032167
