23

C      -0.165373    1.514168    0.347061
C       0.203800    0.041539    0.205456
C       1.113415   -0.402021   -0.996830
C       1.598213    0.654215   -1.983906
C       2.148990   -1.001213    0.010261
C       3.446213   -0.221540    0.242564
O       3.090129    0.900570    1.045142
C       2.130161    0.420261    1.982064
C       1.241635   -0.558730    1.209570
H       0.716984    2.159685    0.358313
H      -0.807364    1.836662   -0.479551
H      -0.718958    1.687953    1.276904
H      -0.719143   -0.547090    0.219603
H       0.629093   -1.204516   -1.562462
H       2.110252    1.480292   -1.483123
H       2.295839    0.217864   -2.707910
H       0.759679    1.072592   -2.550706
H       2.333791   -2.070639   -0.108217
H       4.175538   -0.855419    0.773900
H       3.920515    0.157154   -0.666439
H       2.634247   -0.103772    2.811113
H       1.605351    1.286193    2.393639
H       0.848256   -1.346187    1.855345
