16

N       0.153714    1.401705    0.092201
C       0.017095    0.027870    0.011110
C      -1.041877   -0.799903   -0.197993
N      -0.571604   -2.108585   -0.308007
C       0.702844   -2.008375   -0.151035
O       1.148351   -0.732402    0.041533
N      -2.383484   -0.391945   -0.291654
C      -3.229763   -1.079151   -1.280800
C      -3.408397   -1.339881    0.169703
H       0.725199    1.705554    0.872543
H      -0.761913    1.833808    0.133186
H       1.451211   -2.783955   -0.139160
H      -3.925283   -0.438588   -1.815164
H      -2.760566   -1.862293   -1.869041
H      -3.058595   -2.296505    0.546027
H      -4.237253   -0.892059    0.710308
