18

C      -0.334388    1.698021   -0.121285
C      -0.424220    0.189480   -0.331796
C       0.824498   -0.410795   -0.960902
O       1.751087    0.264033   -1.348242
C       0.826304   -1.915792   -1.052312
O       1.716940   -2.524956   -1.981434
C       1.990011   -2.729674   -0.603628
C       3.265607   -2.154305   -0.048986
H       0.491172    1.950366    0.549453
H      -0.149952    2.210297   -1.068494
H      -1.261562    2.084567    0.310339
H      -0.618103   -0.339818    0.612290
H      -1.274627   -0.070957   -0.978769
H      -0.159184   -2.381008   -0.993887
H       1.740330   -3.734209   -0.253126
H       3.429051   -1.142352   -0.420166
H       3.232471   -2.142603    1.045767
H       4.111275   -2.781292   -0.350368
