20

C       0.201141    1.532088    0.002876
C       1.361250    0.628461   -0.087250
C       1.722685    0.055912    1.282837
C       0.263960   -0.481671    1.322850
C      -0.670548   -0.111671    2.454465
C      -0.370596   -0.711803    3.847371
C      -0.390000    0.752079    4.327083
O      -0.510525    1.237096    2.973614
N      -0.052339    0.071173   -0.047816
H       0.004594    2.079928    0.918349
H      -0.118037    2.024318   -0.910798
H       1.972334    0.544799   -0.980110
H       2.470271   -0.738252    1.251427
H       2.003538    0.789205    2.043114
H       0.237868   -1.574278    1.238167
H      -1.705949   -0.268252    2.119099
H      -1.127278   -1.377536    4.264016
H       0.608953   -1.190884    3.915823
H      -1.261947    1.027352    4.934138
H       0.516269    1.124267    4.817746
