15

O       0.133809    1.389718    0.027367
C       0.026251    0.037094    0.020371
C      -1.021302   -0.805213   -0.015292
C      -2.441895   -1.240526   -0.314681
C      -1.811841   -2.661286   -0.596234
N      -0.526016   -2.107372   -0.131033
C       0.851999   -2.137112   -0.293611
O       1.605846   -3.058264   -0.525141
N       1.171990   -0.785209   -0.069552
H       0.261506    1.702837    0.930832
H      -3.132999   -1.219779    0.531388
H      -2.914490   -0.763708   -1.175293
H      -2.185357   -3.489279    0.009942
H      -1.804535   -2.947322   -1.651355
H       2.115283   -0.444103   -0.140114
