19

O       0.563764    0.234963    0.927228
C      -0.177153    0.335424   -0.275690
C      -1.530101   -0.299766   -0.127047
N      -2.646832   -0.305416   -1.121945
C      -3.281197    0.987134   -1.371941
C      -3.200453   -1.079829    0.031294
C      -1.830666   -1.773522    0.282068
N      -1.733972   -1.440476    1.740816
C      -2.452718   -0.260250    1.151721
H       0.154739   -0.454399    1.472075
H      -0.286029    1.400247   -0.525749
H       0.354510   -0.139551   -1.116061
H      -2.650094    1.577907   -2.043093
H      -4.238422    0.822174   -1.876840
H      -3.470696    1.584517   -0.464044
H      -4.204927   -1.509067    0.037099
H      -1.436586   -2.685516   -0.165211
H      -2.367826   -2.020396    2.295377
H      -2.778607    0.582742    1.760345
