22

C      -0.157880    1.594230    0.285642
C      -0.253474    0.083779    0.507683
C      -1.088963   -0.618956   -0.582298
C      -1.191649   -2.061809   -0.394871
C      -1.256244   -3.251799   -0.207689
C      -1.347015   -4.680909   -0.032948
C      -0.864437   -5.522950   -1.199102
C      -1.249334   -5.212526    1.361932
N      -2.543313   -5.220348    0.667484
H       0.436877    2.071890    1.069916
H       0.312744    1.825808   -0.676474
H      -1.149405    2.060798    0.289131
H       0.748156   -0.360003    0.525513
H      -0.700601   -0.126337    1.485867
H      -2.095004   -0.177891   -0.608067
H      -0.647961   -0.411057   -1.566765
H       0.196172   -5.339430   -1.396657
H      -1.007185   -6.583294   -0.976811
H      -1.427824   -5.282276   -2.105605
H      -0.809104   -6.193700    1.520527
H      -1.085685   -4.500533    2.165267
H      -3.111822   -4.444815    0.998857
