11

O       0.219707    1.347349   -0.067520
C       0.089590    0.012774   -0.065487
C      -0.139989   -0.828457   -1.114397
O      -0.362487   -0.577792   -2.414241
C       0.211882   -1.417289   -3.359540
O      -0.016453   -1.273061   -4.511893
O      -0.198423   -2.078884   -0.647360
N       0.016641   -1.993080    0.759921
N       0.171291   -0.767441    1.047246
H       0.351502    1.633597    0.844808
H       0.862432   -2.176971   -2.901811
