17

C       0.064942    1.465732   -0.011382
N       0.015052    0.015271    0.009610
C      -0.041707   -0.667673    1.205448
N      -0.052603   -0.066269    2.332514
C       0.025789   -0.658432   -1.207360
C       0.079496   -0.105488   -2.467664
N       0.066374   -1.194315   -3.325331
C       0.006989   -2.312707   -2.564277
N      -0.018936   -2.029657   -1.280129
H       0.981853    1.814181   -0.502415
H      -0.797124    1.874572   -0.552657
H       0.047626    1.814205    1.019787
H      -0.074199   -1.746655    1.049865
H      -0.096932   -0.749837    3.084168
H       0.124310    0.906333   -2.827118
H       0.094873   -1.153623   -4.329536
H      -0.015147   -3.305375   -2.987771
