18

C       0.010338    1.463573    0.044700
C      -0.006283   -0.022382   -0.024448
C      -0.015128   -0.891001   -1.039534
C      -0.009961   -2.258810   -0.340809
C       1.063511   -2.007126    0.776367
C       0.001175   -0.957764    1.213105
O       0.086107   -0.402758    2.487851
C      -1.077765   -2.016498    0.780561
H       0.875173    1.824007    0.615220
H       0.045610    1.909172   -0.953254
H      -0.880484    1.858912    0.552752
H      -0.018484   -0.710182   -2.105866
H      -0.008232   -3.161691   -0.947338
H       1.160717   -2.834254    1.486361
H       2.040939   -1.633635    0.463793
H      -0.673147    0.174448    2.622353
H      -2.058788   -1.648672    0.469000
H      -1.167659   -2.845070    1.490059
