15

C       0.029326    1.526105    0.086674
C       0.054383    0.030635   -0.016550
C      -0.962335   -0.888132    0.755168
N      -1.520627   -2.055069    0.082798
C      -0.512137   -2.650825   -0.412909
N       0.775686   -2.018307   -0.184253
C       0.483549   -1.084432    0.958847
C       0.706133   -0.785456   -1.064856
O       1.169931   -0.616124   -2.146027
H       1.020229    1.948909   -0.105132
H      -0.665148    1.950798   -0.644765
H      -0.293798    1.847968    1.081024
H      -1.596529   -0.365941    1.460672
H      -0.561039   -3.532574   -1.040519
H       1.120408   -1.039132    1.832324
