17

C      -0.021844    1.556766    0.106363
O       1.289927    2.104299   -0.061841
C       2.160410    1.195270   -0.695259
C       1.633277    0.501310   -1.949654
C       1.909392   -0.872495   -1.354689
C       0.497016   -0.367870   -1.435863
C       0.044523    0.030271   -0.016407
O       1.115083   -0.401871    0.838213
C       2.248617   -0.226360    0.002401
H      -0.371635    1.853607    1.100443
H      -0.710522    1.970954   -0.646677
H       3.124252    1.692430   -0.810505
H       1.703992    0.840327   -2.975768
H       2.286822   -1.778867   -1.805459
H      -0.203790   -0.788954   -2.144210
H      -0.883793   -0.448441    0.302837
H       3.153777   -0.489468    0.546106
