13

O      -0.011013   -0.004277   -0.037955
C       0.007561    1.187541   -0.024677
O      -1.107512    1.962062   -0.056427
C      -0.822816    3.377222    0.012847
C       0.688396    3.513642   -0.054328
C       1.431811    4.593016   -0.730399
O       1.335301    4.540840    0.687005
C       1.235043    2.118495    0.021276
O       2.379109    1.769945    0.094399
H      -1.347305    3.861716   -0.813993
H      -1.207594    3.766046    0.960149
H       2.415304    4.370434   -1.139937
H       0.868379    5.388948   -1.215322
