21

C       0.311121    1.424331   -0.030454
O       1.111618    0.281795   -0.344924
C      -0.250570    0.068405    0.044974
C      -0.500833   -0.711876    1.319336
C      -0.208300   -2.208751    1.085996
C      -0.368180   -3.009737    2.383938
C       0.443218   -2.356417    3.502926
O       0.077130   -0.998506    3.681349
C       0.312270   -0.214747    2.525138
H       0.596039    1.957186    0.874094
H       0.055889    2.062353   -0.875816
H      -0.888534   -0.241276   -0.786785
H      -1.565787   -0.599687    1.568505
H      -0.863088   -2.604250    0.300837
H       0.821118   -2.305189    0.716486
H      -1.423809   -3.034682    2.681530
H      -0.043566   -4.047153    2.243618
H       0.267859   -2.847270    4.464698
H       1.521539   -2.429948    3.276267
H       1.383865   -0.215900    2.266943
H       0.026766    0.804946    2.798347
