17

O       0.059969   -0.042863   -0.005104
C      -0.035485    1.152889    0.015069
C      -1.183856    2.190678    0.060907
C      -0.061828    3.268051    0.035942
C       0.087042    4.406680   -1.007132
N       0.349736    5.434570    0.064365
C      -0.864289    5.441317    0.896524
C       0.107282    4.347480    1.100512
N       0.896908    2.166664   -0.001720
H      -1.838702    2.174280   -0.812370
H      -1.782456    2.164628    0.973405
H       0.969044    4.283842   -1.639712
H      -0.780526    4.633811   -1.635873
H      -0.876580    6.243848    1.627563
H      -1.827202    5.234885    0.432311
H       0.716467    4.252145    1.994227
H       1.906402    2.153335   -0.040211
