13

O      -0.410742    0.870392    0.953187
C       0.070663    1.111301   -0.121743
C       1.462577    1.699261   -0.327430
C       1.429846    2.876312   -1.250252
C       1.274469    4.216585   -0.974695
N       1.279993    4.801381   -2.194423
N       1.423724    3.896110   -3.178098
N       1.512464    2.730481   -2.607145
H      -0.481676    0.918988   -1.067889
H       1.880777    1.949516    0.650145
H       2.082810    0.918665   -0.785747
H       1.171594    4.772484   -0.058156
H       1.203801    5.778162   -2.430487
