17

C       0.056186    1.431332    0.065093
O       1.394797    1.835897   -0.050802
C       2.338497    1.417829    0.943637
C       2.296924    2.138549    2.278320
C       1.518434    1.745573    3.305400
C       0.588220    0.708532    3.048263
C      -0.098755   -0.080129    2.438660
C      -0.742356   -0.558116    1.214075
O      -0.107695    0.022025    0.069216
H      -0.426511    1.872627    0.945505
H      -0.411788    1.814251   -0.847925
H       2.234179    0.340568    1.110324
H       3.308439    1.599051    0.472889
H       2.962699    2.986411    2.415553
H       1.548976    2.245844    4.267833
H      -0.651497   -1.640012    1.079709
H      -1.816837   -0.320937    1.228921
