18

C      -0.467830    1.509402    0.053459
N      -0.216414    0.088209    0.208953
C      -1.224654   -0.795451    0.814794
C      -0.080655   -1.673480    1.372307
C       0.863067   -0.445568    1.045392
C       2.114224   -0.826158    0.272193
O       3.139350   -1.195752    0.786181
C       1.213001    0.277648    2.340905
O       0.475443    1.053884    2.894748
H       0.437549    2.000390   -0.319691
H      -1.249643    1.645094   -0.701850
H      -0.775694    2.009576    0.980799
H      -1.808229   -0.316710    1.613584
H      -1.911375   -1.261668    0.099653
H      -0.132615   -1.962899    2.421491
H       0.151185   -2.545922    0.759693
H       1.981787   -0.762468   -0.830582
H       2.208295    0.011097    2.752822
