19

C       0.087805    1.493839   -0.170239
C      -0.069367   -0.015198    0.071368
C       0.656764   -0.476482    1.302156
C       2.143279   -0.850435    1.341469
O       2.632908   -0.644142    2.676488
C       1.377393   -1.247257    3.124019
C       1.129845   -1.878721    1.714639
C       0.349279   -0.141384    2.771594
O       0.588576    1.144423    3.265926
H       1.135211    1.753153   -0.356527
H      -0.498975    1.816034   -1.035651
H      -0.241760    2.062345    0.703673
H      -1.134569   -0.264553    0.165522
H       0.294933   -0.573132   -0.801408
H       2.831420   -0.765551    0.510692
H       1.448901   -1.727307    4.097262
H       0.895371   -2.870905    1.357302
H      -0.671370   -0.429698    3.037641
H       1.546616    1.264417    3.201353
