21

C      -0.278884    1.392365    0.102957
O       0.247349    0.107206   -0.156824
C       0.768814   -0.522147    0.974097
C      -0.128451   -1.340316    1.944575
C      -0.961323   -2.230934    1.005031
C       0.209016   -2.706762    0.091302
C       1.358118   -1.938570    0.785448
C       2.781834   -2.208533    0.389972
O       1.049811   -2.158453    2.207009
H       0.485390    2.063067    0.523915
H      -0.623096    1.801343   -0.849646
H      -1.128205    1.355925    0.800849
H       1.461011    0.123797    1.529491
H      -0.587700   -0.928820    2.843261
H      -1.438233   -3.047241    1.551124
H      -1.725228   -1.668994    0.462313
H       0.379755   -3.784618    0.141683
H       0.085071   -2.409592   -0.952062
H       2.938538   -1.931632   -0.657447
H       3.476042   -1.634843    1.010173
H       3.018012   -3.271986    0.499836
