19

O       0.226755    0.239679    0.857436
C       0.293805    1.415723    0.660019
O       0.804167    1.940249   -0.467010
C       0.907153    3.376660   -0.555041
C       2.298860    3.839163   -0.272572
C       2.800982    4.112534    1.121007
C       2.792535    5.237507    0.123210
C       3.987696    5.106996   -0.829104
C       3.493055    3.677015   -1.227059
H      -0.066624    2.188284    1.368769
H       0.603052    3.622620   -1.576925
H       0.192586    3.843747    0.135783
H       2.038117    4.171543    1.891730
H       3.741028    3.681927    1.458562
H       2.212943    6.137687    0.292385
H       3.949157    5.805336   -1.667556
H       4.974827    5.177905   -0.361690
H       4.162369    2.838594   -1.014128
H       3.190218    3.620735   -2.275518
