18

O      -0.886397    1.237644   -0.219320
C       0.250599    0.936764    0.065200
C       1.396587    1.867092    0.041158
C       1.135871    3.360371    0.034453
C       1.715965    2.747264   -1.196815
C       3.223124    2.443312   -1.257758
C       3.658052    2.462235    0.223755
N       2.717739    1.285662    0.407951
C       3.186301    0.900137   -1.000620
H       0.522134   -0.096429    0.373073
H       0.075134    3.583790   -0.021569
H       1.700771    4.030169    0.669865
H       1.118863    2.673053   -2.098210
H       3.800600    2.906472   -2.059684
H       4.683982    2.120992    0.370261
H       3.479011    3.329371    0.857717
H       2.477349    0.293836   -1.570002
H       4.165287    0.416262   -0.959634
