21

C       0.080092    1.561076    0.189743
C      -0.047958    0.040324    0.003216
O      -1.439810   -0.313201   -0.064890
C       0.497536   -0.414749   -1.362786
C       1.950748   -0.124696   -1.630992
C       2.996973   -0.418137   -0.860831
C       3.028142   -1.110922    0.472969
C       1.805147   -1.173310    1.345000
C       0.573474   -0.697766    1.171868
H       1.125747    1.875684    0.156303
H      -0.476125    2.080170   -0.597650
H      -0.330275    1.865258    1.159938
H      -1.874715    0.051832    0.713109
H       0.297898   -1.489767   -1.446706
H      -0.119675    0.067644   -2.126790
H       2.159316    0.364025   -2.580183
H       3.984942   -0.159866   -1.238622
H       3.390585   -2.141837    0.316725
H       3.828755   -0.654513    1.075967
H       1.998472   -1.679056    2.290610
H      -0.130796   -0.849904    1.989778
