14

C      -0.027992    1.506531    0.020341
C      -0.015980   -0.006511   -0.057145
C       0.771673   -0.699202   -1.101853
O       1.251550   -0.629170    0.235344
C      -1.167801   -0.674424    0.496311
C      -2.153115   -1.193930    0.970822
C      -3.255007   -1.790627    1.498783
C      -4.234434   -2.319338    1.967291
H       0.889049    1.908352   -0.417081
H      -0.889862    1.912247   -0.517450
H      -0.091257    1.832425    1.062353
H       0.461681   -1.685702   -1.440762
H       1.312065   -0.096168   -1.831065
H      -5.093879   -2.786535    2.379908
