17

O      -0.020891   -0.045309    0.080516
C      -0.001352    1.166240    0.039972
N      -1.097746    1.986011   -0.004208
C      -0.865625    3.421930    0.073543
C       0.675433    3.539202    0.030918
C       1.428474    3.751819    1.361946
N       0.885846    2.752554    2.310593
C       1.935340    2.353049    1.343322
C       1.221180    2.077871    0.003568
H      -2.015155    1.582130    0.105307
H      -1.340034    3.939810   -0.768645
H      -1.266576    3.838768    1.004781
H       1.037306    4.179028   -0.773470
H       1.893704    4.663380    1.716286
H       1.344987    2.901707    3.207942
H       2.874648    1.936121    1.682188
H       1.897572    1.823485   -0.812445
