21

C       0.047694    1.538682    0.067650
C       0.022795    0.011216    0.000506
C       0.645500   -0.607298    1.254699
O      -1.371596   -0.343842   -0.083405
C       0.738446   -0.514763   -1.258915
N       0.039724   -0.081953   -2.450472
C       0.663142   -0.080615   -3.674150
N      -0.194995    0.168949   -4.743316
O       1.852288   -0.297061   -3.823440
H       1.074744    1.902082    0.163669
H      -0.384981    1.969057   -0.837920
H      -0.529796    1.884529    0.928935
H       0.115849   -0.264766    2.147936
H       0.591363   -1.702235    1.220710
H       1.700592   -0.332409    1.350392
H      -1.440758   -1.294510    0.060117
H       1.766746   -0.150207   -1.314069
H       0.794400   -1.614636   -1.203217
H      -0.964937   -0.159430   -2.400585
H      -0.988173    0.768586   -4.569060
H       0.309582    0.400495   -5.585857
