17

N      -0.027173    1.156277   -0.449123
C      -0.007865   -0.033889   -0.044526
C      -1.255275   -0.942697    0.065385
C      -0.556038   -2.270498    0.131590
C      -0.450355   -3.732018    0.647302
C       0.948347   -3.321399    0.035401
N       0.250980   -2.656320   -1.117835
C       0.775672   -1.987694    0.820178
O       1.140619   -0.697329    0.371906
H       0.910349    1.560807   -0.429335
H      -1.806096   -0.708929    0.982706
H      -1.909919   -0.784615   -0.791420
H      -0.529017   -3.905246    1.725965
H      -0.987507   -4.492622    0.076104
H       1.830509   -3.949464   -0.095077
H      -0.278108   -3.359010   -1.642415
H       0.839057   -2.051962    1.908624
