17

C       0.061715    1.603895    0.051431
C       0.074844    0.093289   -0.030029
C       0.637529   -0.677477   -1.202337
C       1.403412   -0.007053   -2.321585
O       2.542010    0.770333   -1.899380
C       3.078964    0.538719   -0.678644
N       2.611045   -0.117336    0.296458
C       1.335928   -0.744394    0.136005
H       0.937531    2.058524   -0.414829
H      -0.825473    2.004370   -0.451618
H       0.029425    1.934695    1.094503
H      -0.804473   -0.368888    0.413164
H       0.084835   -1.551445   -1.535216
H       1.776899   -0.776316   -3.008324
H       0.781436    0.684326   -2.900487
H       4.040124    1.042856   -0.600455
H       1.239454   -1.647558    0.729341
