21

C      -0.033329    1.508058   -0.115906
C       1.313397    0.831412   -0.035427
C       0.048416    0.008400    0.031848
C      -0.381362   -0.675798    1.292223
C      -0.362185   -2.193709    1.375329
C      -1.683102   -1.466398    1.411043
C      -2.304360   -1.158504    2.772201
C      -1.260704   -0.288542    3.441914
C      -0.240731   -0.010699    2.627114
H      -0.364145    2.076165    0.747294
H      -0.350681    1.919435   -1.067882
H       1.916166    0.770437   -0.934983
H       1.892909    0.957857    0.872813
H      -0.177140   -0.565351   -0.863445
H      -0.130022   -2.737343    0.464160
H       0.014429   -2.653840    2.283676
H      -2.335294   -1.569788    0.551165
H      -3.261345   -0.628572    2.670755
H      -2.516985   -2.066957    3.351408
H      -1.342248    0.032765    4.474388
H       0.621655    0.590726    2.893268
