23

C      -0.348829    1.333247   -0.073737
C      -0.152137   -0.141341   -0.135972
C       0.085399   -0.966163   -1.163812
C       0.206475   -2.344683   -0.503011
C      -1.020963   -2.257225    0.466743
C      -0.156458   -1.099108    1.070667
C       1.117311   -2.001508    0.758024
C       1.355910   -3.159904    1.737015
C       2.465428   -1.316215    0.526782
H       0.422260    1.814346    0.542702
H      -0.312842    1.782847   -1.070610
H      -1.313676    1.593292    0.380937
H       0.192196   -0.740182   -2.216098
H       0.397019   -3.215690   -1.132144
H      -1.968923   -1.962055    0.013049
H      -1.169616   -3.118720    1.118808
H      -0.340174   -0.682595    2.063437
H       0.462774   -3.731657    1.989806
H       2.087668   -3.860361    1.317792
H       1.779122   -2.778524    2.673710
H       2.870950   -0.942198    1.474442
H       3.193085   -2.033052    0.128378
H       2.400052   -0.480431   -0.170021
