15

O      -0.453312    1.718700   -2.097393
C       0.001896    1.831639   -0.980163
C       1.430026    2.319166   -0.743039
N       2.049922    1.679928    0.403557
C       2.789926    0.448879    0.135582
C       3.507487    1.715252    0.450242
C      -0.796799    1.549038    0.198252
C      -1.496178    1.322461    1.151117
H       1.975731    2.184235   -1.691081
H       1.371424    3.399149   -0.546041
H       2.690270   -0.330901    0.884387
H       2.834501    0.094057   -0.892789
H       4.033978    2.204363   -0.367680
H       3.941781    1.875868    1.432668
H      -2.111335    1.121584    1.994307
