18

O      -0.115175    1.562539    0.078084
C       0.039435    0.208798   -0.290995
C      -1.295001   -0.528344   -0.148259
C      -1.429275   -2.076752   -0.085179
C      -0.340982   -2.963921    0.593459
C      -1.193064   -2.919084    1.897941
N      -2.137416   -1.950676    1.245654
C      -1.779524   -0.587269    1.311688
O      -1.704170    0.170043    2.244751
H      -0.481364    1.565956    0.973707
H       0.379765    0.195456   -1.331601
H       0.814570   -0.287191    0.314112
H      -2.025491   -0.082243   -0.829582
H      -1.992147   -2.549651   -0.891653
H      -0.218780   -3.952117    0.147255
H       0.642653   -2.498880    0.684183
H      -1.693176   -3.857273    2.147084
H      -0.719417   -2.513006    2.794682
