19

C       0.037117    1.491528    0.089485
C       0.060492    0.000201   -0.013268
C       0.028483   -0.780366   -1.116826
C       0.027636   -2.253067   -0.761357
C       0.486628   -2.260901    0.714760
O       1.883784   -2.486057    0.839293
C       0.089229   -0.856547    1.233286
C      -0.035851   -0.328214   -2.505370
O      -0.089728   -1.081674   -3.455819
H       0.923314    1.850308    0.627682
H      -0.001299    1.992843   -0.878759
H      -0.830158    1.817656    0.677475
H      -0.978927   -2.675327   -0.875582
H       0.691031   -2.852244   -1.391035
H       0.021779   -3.061118    1.294763
H       2.335771   -1.862041    0.259943
H       0.793285   -0.500944    1.993917
H      -0.906021   -0.863741    1.701490
H      -0.029831    0.772031   -2.660351
