16

O       0.015146   -0.036703    0.053675
C      -0.009894    1.167755   -0.025421
N      -1.134960    1.973792   -0.045486
C      -0.773650    3.352286   -0.209122
C       0.141571    4.049170    0.883923
C       1.037150    2.897457    1.364589
C       1.151290    2.171347   -0.026862
C       0.608604    3.363851   -0.887989
O       0.944045    4.589134   -0.205861
H      -2.064063    1.614132    0.098335
H      -1.543893    3.989354   -0.637198
H      -0.210618    4.798157    1.591754
H       1.997986    3.286149    1.705555
H       0.600480    2.267518    2.142658
H       2.116077    1.738248   -0.273615
H       0.773430    3.369281   -1.964391
