15

C       0.057952   -1.193019   -0.182270
C       0.049691    0.002783   -0.076480
C       0.002271    1.465806    0.042890
C       1.353230    2.032301    0.117526
C       2.455579    2.508579    0.157078
C      -0.833124    2.076703   -1.099701
C      -0.680273    3.497411   -1.485499
N      -0.235009    2.416860   -2.388411
H       0.073587   -2.250792   -0.276087
H      -0.519529    1.708847    0.981009
H       3.434845    2.917053    0.210653
H      -1.811489    1.608555   -1.174096
H      -1.543702    4.059336   -1.829328
H       0.077889    4.081506   -0.972051
H       0.778193    2.328815   -2.326406
