20

C      -0.101696    1.569082    0.110117
C      -0.059449    0.055795   -0.096911
C       0.709076   -0.399927   -1.310705
N       1.303565    0.477373   -2.025610
O       1.983844   -0.113683   -3.106657
C       0.811837   -1.864287   -1.595235
O      -0.059918   -2.732613   -0.867001
C      -0.238534   -2.638697   -2.284849
C      -1.524331   -2.047767   -2.799611
H       0.904275    1.981993    0.219148
H      -0.567928    2.071925   -0.741309
H      -0.674822    1.809697    1.010183
H       0.380734   -0.440634    0.779081
H      -1.073392   -0.357747   -0.156697
H       2.402713    0.647245   -3.521878
H       1.836270   -2.223148   -1.698187
H       0.099276   -3.528719   -2.819233
H      -1.782485   -1.120696   -2.284036
H      -1.431804   -1.831666   -3.869058
H      -2.347903   -2.757379   -2.669052
