24

C      -0.003080    1.579457    0.188589
C      -0.036331    0.066277   -0.060336
C       0.692135   -0.433373   -1.335432
C      -0.012142    0.077079   -2.605867
C       2.157821    0.042661   -1.335001
C       0.696920   -2.006961   -1.301355
C      -0.683977   -2.692778   -1.215983
C       1.424455   -2.554793   -2.453787
N       1.981705   -2.992786   -3.367502
H       1.013129    1.950086    0.348427
H      -0.438807    2.140986   -0.643395
H      -0.583600    1.822140    1.083998
H       0.399362   -0.441576    0.811249
H      -1.085233   -0.246798   -0.104117
H       0.057612    1.165992   -2.675676
H       0.449568   -0.338857   -3.506523
H      -1.074631   -0.185305   -2.617176
H       2.674615   -0.262804   -0.417756
H       2.707033   -0.372823   -2.184522
H       2.217650    1.131494   -1.406494
H       1.270372   -2.299522   -0.411298
H      -1.198162   -2.414965   -0.294434
H      -1.317371   -2.425481   -2.065062
H      -0.562533   -3.778903   -1.219862
