20

C       0.110711    1.480833    0.115733
C      -0.004074   -0.005084   -0.004588
C      -0.038977   -0.744378   -1.118476
C      -0.152206   -2.227956   -0.842275
C      -0.139935   -2.300970    0.686848
C      -0.891534   -3.397380    1.389715
O      -0.395214   -4.690374    1.071992
N       1.138965   -1.810564    1.269908
C      -0.047269   -0.905883    1.193024
H       1.032077    1.764775    0.639723
H       0.114671    1.963176   -0.865397
H      -0.721572    1.900250    0.695553
H       0.038548   -0.346632   -2.124991
H      -1.078676   -2.655001   -1.249253
H       0.675490   -2.796584   -1.280736
H      -0.877219   -3.214969    2.478118
H      -1.940678   -3.403732    1.073695
H       0.551698   -4.689921    1.248737
H       1.202254   -2.159327    2.228073
H      -0.508462   -0.584264    2.122731
