17

O      -0.249304    1.271658    0.222692
C       0.000166   -0.093114    0.105199
C       1.112777   -0.802332    0.857382
C       0.753293   -2.222754    0.468629
C       0.149893   -2.266588   -0.930011
C      -0.751678   -2.378286    0.282408
C      -1.245954   -0.937369    0.032557
O      -2.503827   -0.469890    0.318636
C      -0.348541   -0.828064   -1.199924
H       0.318425    1.751108   -0.389960
H       2.112518   -0.513143    0.511441
H       1.047906   -0.625704    1.936658
H       1.330467   -3.068627    0.823252
H       0.383275   -3.015327   -1.674459
H      -1.342580   -3.213481    0.631521
H      -2.413179    0.478489    0.484600
H      -0.479532   -0.332194   -2.152842
