15

O       0.030706    0.042043    0.056829
C      -0.000027    1.238295    0.025212
C      -1.206670    2.208711    0.047320
C      -0.370109    3.498508    0.012818
O       0.605187    3.184458   -1.032979
C       1.152698    2.256062   -0.049803
C       0.743976    3.259178    1.082815
C       1.664163    4.354761    1.290310
C       2.426316    5.262327    1.489125
H      -1.824984    2.101617   -0.846785
H      -1.829539    2.068185    0.934776
H      -0.859457    4.462842   -0.107351
H       2.170063    1.918070   -0.228378
H       0.420527    2.820377    2.032926
H       3.100858    6.065185    1.657261
