18

C       0.014219    1.554552   -0.035777
C      -0.027058    0.046352   -0.046841
C       0.796321   -0.689727   -1.088794
C       0.658977   -1.974378   -0.763288
C      -0.239167   -1.921152    0.443621
N       0.277638   -0.729227    1.291382
C      -1.166162   -0.480001    1.719981
C      -1.321003   -0.792702    0.225593
O      -2.439987   -0.766387   -0.583454
H       1.039256    1.904558    0.122668
H      -0.330930    1.941039   -1.000282
H      -0.616073    1.992703    0.741348
H       1.366667   -0.225379   -1.880886
H       1.077441   -2.859922   -1.218704
H      -0.473364   -2.821635    1.012605
H      -1.533155   -1.220670    2.436648
H      -1.363883    0.532476    2.076155
H      -3.152701   -1.247622   -0.148571
