20

N      -0.209292    1.022972   -0.086761
H      -0.502677    0.090958   -0.381240
H       0.805448    1.096086   -0.179596
H      -0.642767    1.764357   -0.675962
C      -0.674119    1.406692    1.315398
C      -0.633900    2.930007    1.379906
O      -1.154389    3.328438    0.097407
C      -1.426481    3.488235    2.543781
C      -1.510767    5.014886    2.537831
C      -1.585980    5.581854    4.047770
O      -1.109685    4.799125    4.895339
O      -2.072225    6.713133    4.131490
H      -1.699290    1.041634    1.398716
H      -0.034817    0.917910    2.049995
H       0.413739    3.264228    1.455858
H      -1.543441    4.207472    0.212897
H      -2.428361    3.037362    2.547082
H      -0.945403    3.247329    3.504905
H      -0.598081    5.450433    2.104783
H      -2.366100    5.403995    1.974147
