19

C      -0.055052    1.485239   -0.018439
C       1.475006    1.516132   -0.039833
C       1.404943    0.096177   -0.631210
C       2.306997   -0.444543    0.460889
C       1.435239   -1.497945    1.152060
C       0.272605   -0.521924    1.383447
C       1.043331    0.568419    2.166749
N       2.117880    0.892542    1.203880
N      -0.003679   -0.020498   -0.011302
H      -0.631635    1.953191    0.783804
H      -0.459754    1.826098   -0.977556
H       2.035831    2.368322   -0.431618
H       1.454325   -0.183727   -1.685651
H       3.348424   -0.681522    0.244464
H       1.182204   -2.313975    0.469322
H       1.847241   -1.909096    2.076474
H      -0.630200   -0.923291    1.848549
H       0.476678    1.461449    2.432279
H       1.469748    0.165767    3.092407
