17

N      -0.106510    1.253672   -0.587517
C      -0.039340    0.089302   -0.102166
O       1.107108   -0.515915    0.336957
C       0.821234   -1.832993    0.869531
C       0.694528   -1.698766    2.388595
C      -0.674279   -0.992038    2.523197
N      -1.486951   -1.448603    1.363534
C      -0.610458   -2.163105    0.432467
C      -1.184971   -0.854569    0.035986
H       0.819802    1.683905   -0.616920
H       1.596842   -2.513224    0.516741
H       0.660374   -2.693507    2.845980
H       1.525756   -1.141992    2.826644
H      -1.200256   -1.274227    3.437908
H      -0.573597    0.097641    2.518938
H      -0.902201   -3.133288    0.046512
H      -2.038325   -0.712330   -0.615191
