19

C       0.460303    1.389334    0.289768
C      -0.197299    0.056740   -0.059069
N       0.419925   -0.502942   -1.264588
C       1.576528   -1.377590   -1.081647
C       0.274840   -1.932903   -1.542520
C      -0.520512   -2.856106   -0.668260
C       0.014533   -4.160256   -0.248436
O      -0.083394   -3.074439    0.674769
H       1.520380    1.250171    0.526323
H       0.390918    2.085362   -0.551011
H      -0.023072    1.842308    1.160869
H      -0.142080   -0.625879    0.801222
H      -1.260221    0.215023   -0.279715
H       2.397382   -1.240569   -1.780644
H       1.866855   -1.626034   -0.062456
H       0.140207   -2.151391   -2.602482
H      -1.604340   -2.768720   -0.764232
H      -0.663721   -4.991315   -0.062818
H       1.027667   -4.434822   -0.537347
