17

C      -0.036161    1.454159    0.187948
O       0.004034    0.053506   -0.086470
C      -1.195472   -0.538923   -0.132662
N      -2.379423    0.006789    0.041697
C      -3.321401   -1.011452   -0.102170
C      -2.658276   -2.174769   -0.366654
C      -2.394809   -3.646013   -0.667808
C      -0.869457   -3.243648   -0.677901
N      -1.317871   -1.865502   -0.383535
H       1.002956    1.785509    0.192157
H      -0.603820    1.984544   -0.582452
H      -0.503001    1.646308    1.158619
H      -4.375221   -0.808329   -0.002147
H      -2.668474   -4.353799    0.118330
H      -2.769567   -4.015376   -1.625377
H      -0.258515   -3.682637    0.114083
H      -0.360414   -3.341100   -1.639466
