17

C      -0.239342    1.516937   -0.002478
C      -0.023176    0.017671    0.046440
O      -1.322189   -0.616484   -0.017373
C      -1.321729   -1.962612    0.021819
O      -0.347900   -2.655405    0.099675
C      -2.778585   -2.468838   -0.030732
O      -2.856869   -3.829576   -0.269117
C      -3.463584   -2.094201    1.280362
O      -3.931806   -2.944683    1.994309
H       0.726082    2.029646    0.038558
H      -0.745473    1.809408   -0.926604
H      -0.843579    1.854257    0.844362
H       0.578818   -0.339969   -0.794114
H       0.476162   -0.298356    0.967402
H      -3.276575   -1.891808   -0.826863
H      -3.208614   -4.224554    0.544476
H      -3.491669   -1.018215    1.531808
