15

C      -0.083750    1.460582   -0.037834
N       0.056226    0.015622   -0.036847
C       0.595321   -0.718041   -1.031095
N       0.590349   -2.007693   -0.994767
C       1.185873   -2.674559   -2.047849
N       1.217395   -3.955101   -2.090657
C       1.765922   -1.804730   -3.090840
N       1.751540   -0.527208   -3.103966
O       1.115140    0.081633   -2.003271
H       0.874137    1.942030   -0.247840
H      -0.813665    1.808044   -0.778449
H      -0.417594    1.770740    0.953491
H      -0.401736   -0.535500    0.670583
H       1.695421   -4.264785   -2.937880
H       2.262742   -2.246389   -3.952220
