19

O       0.304364    0.992434    0.689362
C       0.019994   -0.207126    0.017994
C      -1.490914   -0.450212   -0.099891
C      -1.723025   -1.832257   -0.767051
C      -1.554497   -1.105650   -2.128910
C      -2.046923    0.187913   -1.406031
C      -0.058485   -0.977693   -2.469482
C       0.645417   -0.172158   -1.387424
O       1.595654    0.548673   -1.599119
H       1.085415    1.356551    0.244682
H       0.469508   -1.066878    0.552167
H      -1.982420   -0.229714    0.849114
H      -1.028153   -2.644991   -0.528219
H      -2.747287   -2.182932   -0.618622
H      -2.124602   -1.474296   -2.984158
H      -3.137331    0.249629   -1.392813
H      -1.637481    1.152953   -1.720414
H       0.407672   -1.969329   -2.547402
H       0.115271   -0.467054   -3.421712
