17

C      -0.191650    1.474200   -0.029210
C       0.045915    0.006342    0.058013
C       0.648316   -0.995711   -0.871174
C       1.479186   -1.708044    0.272481
C       1.132329   -3.196206    0.654854
N      -0.361671   -3.159322    0.526364
C      -0.572368   -1.910621    0.659138
C       0.500395   -0.936414    1.203685
N      -0.877912   -1.030479   -0.466392
H       0.732229    2.033582    0.151549
H      -0.569310    1.740355   -1.020693
H      -0.932223    1.793128    0.712182
H       0.841215   -0.957927   -1.935973
H       2.533427   -1.417644    0.251852
H       1.492587   -3.960315   -0.040772
H       1.536062   -3.430260    1.652094
H       0.699630   -0.719825    2.249006
