19

C      -0.504606    1.282498   -0.247198
N      -0.239976   -0.128153   -0.005478
C       1.087143   -0.340049    0.559639
C      -1.292491   -0.752835    0.792156
C      -1.298261   -2.248092    0.524197
O      -0.574087   -3.057518    1.037817
O      -2.238976   -2.555595   -0.425715
C      -2.321986   -3.858261   -0.855546
N      -3.210546   -4.141657   -1.698681
H       0.272829    1.688167   -0.901643
H      -1.468269    1.402309   -0.750684
H      -0.517893    1.888642    0.678537
H       1.222134    0.176074    1.529498
H       1.263140   -1.405572    0.717832
H       1.842197    0.037817   -0.136079
H      -1.163350   -0.597712    1.877939
H      -2.257511   -0.342410    0.490332
H      -1.577052   -4.505913   -0.393317
H      -3.158673   -5.132130   -1.933308
