19

C       0.435726    1.495342   -0.139884
C       0.049948    0.035730    0.080004
O       0.450650   -0.748680   -1.060564
C       1.049078   -1.945896   -0.618018
O       2.315360   -2.242245   -1.186365
C       3.297293   -2.362384   -0.144273
C       2.520310   -2.564181    1.188715
C       1.329363   -1.737863    0.846075
C       0.760335   -0.610375    1.250604
H       1.522467    1.598237   -0.207887
H      -0.006250    1.858987   -1.071559
H       0.070122    2.119855    0.681968
H      -1.046120   -0.032578    0.175538
H       0.379652   -2.782406   -0.873850
H       3.953314   -3.201273   -0.393664
H       3.903914   -1.448214   -0.088380
H       2.270131   -3.622379    1.328166
H       3.078532   -2.217090    2.060072
H       0.858204   -0.126735    2.214740
