16

O      -0.340711    0.085338   -0.008535
C      -0.087595    1.258449   -0.099645
C       1.267183    1.846685   -0.141470
C       1.476634    3.269041    0.370495
C       1.608241    2.985928   -1.097748
C       2.978345    2.617927   -1.642809
C       3.485061    1.555826   -0.641320
O       2.328671    0.950821   -0.058437
H      -0.889666    2.031743   -0.161849
H       0.595498    3.812460    0.695346
H       2.362050    3.448909    0.970099
H       0.861366    3.380596   -1.776810
H       2.865166    2.192939   -2.644811
H       3.664091    3.467451   -1.711941
H       4.077568    0.764467   -1.107101
H       4.099016    2.020161    0.142221
