17

C      -0.327565    1.479684    0.088539
C       0.026005    0.021579    0.017461
C       1.128493   -0.472253   -0.965980
C       1.835845   -1.129977    0.232093
O       2.974932   -1.436802    0.459123
C       0.691760   -0.850100    1.194630
O       1.006114   -0.501805    2.492729
C      -0.580484   -1.703651    1.026877
O      -1.112565   -0.861749   -0.014008
H       0.573868    2.096821    0.153837
H      -0.882911    1.779540   -0.806926
H      -0.951746    1.680049    0.963439
H       0.758918   -1.148604   -1.739722
H       1.744899    0.306041   -1.425098
H       1.968162   -0.434176    2.552441
H      -0.456233   -2.746797    0.715138
H      -1.192704   -1.660757    1.934842
