19

C      -0.007671    1.473643   -0.159579
C       1.364851    2.105270   -0.044280
C       2.151124    2.031686    1.033215
C       1.837012    1.370093    2.328567
N       0.431452    1.359535    2.785650
C       1.057712    0.084945    2.448979
C       0.571330   -0.672885    1.250869
N      -0.871657   -0.687401    0.935443
C       0.067267   -0.036277    0.005381
H      -0.666660    1.869258    0.615237
H      -0.452894    1.710918   -1.131068
H       1.742218    2.641333   -0.911744
H       3.131320    2.501120    0.992114
H       2.595136    1.518895    3.094837
H       0.381261    1.479408    3.792607
H       1.350949   -0.556733    3.279278
H       1.114615   -1.607064    1.111507
H      -1.138638   -1.604216    0.586387
H       0.308637   -0.574696   -0.910219
