16

N       0.104415   -1.116603    0.030839
C       0.066650    0.037898    0.002291
C      -0.012330    1.488155    0.003784
C      -1.026007    2.158876    0.993274
N      -1.536333    3.064288   -0.085980
C      -0.350150    3.600238   -0.827154
C       1.024708    3.577318   -0.178231
N       1.301657    2.132781   -0.008635
C      -0.809590    2.230842   -1.102738
H      -1.835822    1.495084    1.301504
H      -0.596006    2.653655    1.870744
H      -0.614716    4.416091   -1.489199
H       1.772536    4.035890   -0.834256
H       1.027946    4.136804    0.768135
H       1.812036    1.939113    0.847851
H      -1.254442    1.822538   -2.000505
