17

N      -0.038251   -1.179468   -0.037011
C      -0.042122   -0.023190   -0.025955
C      -0.021530    1.426430    0.014080
C      -0.198544    2.177919    1.373690
N       0.715615    3.253223    0.855856
C       1.340229    2.194324   -0.009427
C      -0.064693    4.171447   -0.001379
C      -0.948683    3.440099   -0.993542
C      -0.937739    2.108827   -0.997157
H      -1.210297    2.494561    1.633392
H       0.272034    1.661854    2.214139
H       2.131990    1.681684    0.542332
H       1.702141    2.525620   -0.984423
H      -0.666840    4.819187    0.648509
H       0.637768    4.833105   -0.524121
H      -1.568169    4.014265   -1.675923
H      -1.533906    1.501461   -1.667604
