19

O       0.002912    0.027861   -0.005237
C      -0.015720    1.225801    0.008039
C      -1.176897    2.230701    0.049659
C      -0.790776    2.745807    1.468212
C       0.540399    3.383131    0.990573
C      -0.065771    4.442693    0.042977
C      -0.639018    3.385630   -0.927623
C       0.711165    2.800543   -1.418556
C       1.113616    2.267007   -0.011399
H      -2.180917    1.846470   -0.110901
H      -1.481814    3.478526    1.891623
H      -0.674597    1.923617    2.182329
H       1.233649    3.722670    1.758726
H      -0.809069    5.065554    0.546627
H       0.657629    5.099164   -0.446769
H      -1.342754    3.720056   -1.688448
H       0.620361    1.990841   -2.150400
H       1.378928    3.563424   -1.825733
H       2.129160    1.910800    0.141104
