14

N      -0.070732   -1.160425    0.015119
C      -0.062783   -0.003934    0.009691
C       0.005276    1.420508    0.035171
C      -0.723173    2.458140    0.823266
C       0.577399    3.203866    1.125400
C       1.251535    2.380419   -0.026022
N       1.069664    3.174426   -1.247128
C      -0.176986    3.128957   -1.484475
N      -0.983717    2.271681   -0.651842
H      -1.592873    2.353886    1.458939
H       0.606104    4.290725    1.023308
H       0.951235    2.899773    2.105342
H       2.258220    1.996436    0.109111
H      -0.676163    3.688904   -2.267363
