19

C      -0.090788    1.510134    0.083450
C      -0.004090    0.012348   -0.001115
C      -0.029048   -0.668897   -1.150033
C       0.091263   -2.172546   -1.228895
C       0.943825   -2.750988   -0.082139
C       0.578536   -2.137010    1.264271
N       1.474345   -1.068194    1.760650
C       0.106122   -0.732069    1.286683
H       0.803268    1.922946    0.567387
H      -0.186037    1.965675   -0.906078
H      -0.950065    1.828229    0.688574
H      -0.136114   -0.127981   -2.088173
H      -0.912232   -2.624087   -1.216387
H       0.528724   -2.459795   -2.191572
H       0.835649   -3.840210   -0.045139
H       1.998755   -2.535458   -0.277653
H       0.160543   -2.812055    2.007079
H       1.482422   -1.076945    2.778750
H      -0.616054   -0.446933    2.051069
