15

O      -0.123345    1.408448    0.022135
C       0.009517    0.050970    0.016541
C      -1.036936   -1.021535    0.124683
C      -0.014970   -0.998817   -1.042198
N       1.222019   -1.706237   -0.523509
C       0.832534   -3.054247   -0.169356
N       0.035847   -3.182500    0.817803
C      -0.244943   -1.797142    1.217622
C       0.969453   -0.944723    0.764902
H       0.624747    1.793595   -0.449882
H      -2.103895   -0.973104   -0.040957
H      -0.289004   -0.981428   -2.087876
H       1.172022   -3.883461   -0.783891
H      -0.611025   -1.690568    2.236226
H       1.833483   -0.738951    1.395193
