18

C      -0.134427    1.544371    0.037637
C       0.001171    0.050116   -0.037311
C       0.055305   -0.640233   -1.175984
C       0.115343   -2.142621   -1.224525
C      -0.333760   -2.715238    0.116248
O       0.344977   -2.071920    1.188287
C       0.028513   -0.699357    1.292985
C       1.022422   -0.108579    2.209927
N       1.780152    0.389454    2.924832
H       0.717944    2.001631    0.552328
H      -0.207385    1.977186   -0.962854
H      -1.032648    1.834536    0.598185
H       0.035417   -0.102499   -2.120964
H      -0.530124   -2.523563   -2.025469
H       1.133531   -2.480751   -1.458947
H      -1.422903   -2.597093    0.232263
H      -0.092828   -3.776419    0.212305
H      -0.958639   -0.573833    1.778815
