22

C      -0.023795    1.439504   -0.362928
N      -0.093796   -0.000236   -0.088745
C      -0.435226   -0.385258    1.277822
C      -1.427580   -0.527013    0.178390
C       1.365384    1.977372   -0.190014
C       2.096813    2.586037   -1.125066
C       3.461879    2.993099   -0.627661
C       3.340813    2.810194    0.908151
C       2.128668    1.867688    1.116106
H      -0.353764    1.597944   -1.395635
H      -0.723881    1.999190    0.289890
H       0.086254   -1.253384    1.670551
H      -0.611236    0.407633    2.003439
H      -2.263187    0.172061    0.172597
H      -1.646181   -1.500690   -0.250698
H       1.775870    2.743445   -2.149964
H       4.238185    2.343584   -1.057478
H       3.734087    4.017411   -0.907402
H       4.257912    2.428111    1.363660
H       3.131236    3.779168    1.372453
H       1.523676    2.150440    1.986515
H       2.439707    0.827914    1.285114
