23

C      -0.246374    1.530464   -0.037543
C       0.029935    0.035564    0.022967
O       0.715203   -0.386659   -1.177132
C       1.829605   -1.187216   -0.752637
C       2.916395   -0.236193   -0.216659
C       2.289915    0.225861    1.136967
C       0.921684   -0.508250    1.171436
C       0.242815   -0.549419    2.529941
C       1.311061   -1.860167    0.522617
H       0.674176    2.112957   -0.126489
H      -0.865605    1.753288   -0.911337
H      -0.789178    1.863171    0.853707
H      -0.939408   -0.488412    0.067980
H       2.128386   -1.826026   -1.585003
H       3.870584   -0.752856   -0.071345
H       3.080030    0.585865   -0.917182
H       2.898231   -0.096784    1.988245
H       2.188007    1.310838    1.214247
H       0.010151    0.457777    2.893598
H      -0.696209   -1.112709    2.488985
H       0.887408   -1.026125    3.276176
H       0.457872   -2.519988    0.341365
H       2.080981   -2.401353    1.080781
