18

O       0.046947    1.454186    0.066768
C       0.014426    0.033703    0.038433
C       0.652351   -0.571191    1.311543
C      -0.540909   -0.760577    2.221981
C      -1.686755   -0.728738    1.540633
C      -1.443147   -0.519826    0.059753
C      -2.452194    0.394819   -0.665163
C      -3.810919   -0.139700   -0.620034
N      -4.879582   -0.577221   -0.568266
H      -0.261189    1.734380    0.936942
H       0.542144   -0.243845   -0.877352
H       1.136788   -1.533890    1.097462
H       1.428234    0.091583    1.709186
H      -0.448626   -0.941883    3.286731
H      -2.677892   -0.878304    1.953395
H      -1.458003   -1.495249   -0.447718
H      -2.446840    1.394283   -0.221810
H      -2.157463    0.520910   -1.712654
