16

O       0.077834    1.368647   -0.118677
C       0.092242   -0.037092   -0.052672
C      -1.339559   -0.575561    0.067679
N      -2.118513   -0.126341   -1.101429
C      -2.683526   -1.154881   -1.576010
O      -2.496531   -2.356846   -0.985331
C      -1.523259   -2.136683    0.050547
C      -0.255158   -2.920315   -0.251343
O      -0.017896   -3.461925   -1.295820
H      -0.567570    1.597130   -0.800171
H       0.575850   -0.484239   -0.936618
H       0.683578   -0.308921    0.828803
H      -1.784923   -0.141590    0.969655
H      -3.338114   -1.177488   -2.439514
H      -1.933262   -2.501636    0.998547
H       0.457323   -2.949374    0.604574
