20

C      -1.542475    1.563787   -0.090367
N      -1.201696    0.158721   -0.171809
C      -1.653232   -0.754619    0.729744
O      -2.323081   -0.477332    1.712727
C      -1.278780   -2.181829    0.396985
C      -1.362716   -3.198174    1.511060
C      -2.411568   -3.180378    0.433824
O      -0.339417   -2.355224   -0.628751
C       1.013087   -2.234984   -0.204780
H      -2.018400    1.728957    0.877152
H      -0.647433    2.190201   -0.165330
H      -2.242077    1.858787   -0.881703
H      -0.759342   -0.209100   -0.999335
H      -0.639482   -4.005217    1.492159
H      -1.628690   -2.814736    2.488318
H      -3.394702   -2.798968    0.681756
H      -2.374937   -3.957029   -0.321124
H       1.633398   -2.386512   -1.091115
H       1.220310   -1.242422    0.216257
H       1.267502   -2.993480    0.545674
