14

C      -0.009626    1.427791   -0.020230
N      -0.008292   -0.015375    0.067507
N      -0.056226   -0.773079   -1.072452
N      -0.045622   -2.051138   -0.760442
C       0.009267   -2.102394    0.585611
C       0.034111   -0.841368    1.139502
N       0.090117   -0.851643    2.506028
C       0.098838   -2.146591    2.773492
N       0.051819   -2.963065    1.662161
H       0.900021    1.839969    0.425356
H      -0.051950    1.687901   -1.077829
H      -0.879092    1.842737    0.497219
H       0.138885   -2.564499    3.768958
H       0.049973   -3.968561    1.659735
