19

C       0.036019    1.534059   -0.020776
C       0.093250    0.008282    0.003374
C       0.880201   -0.615085   -1.205136
C       1.486804   -1.796965   -0.535283
C       1.424472   -1.810413    0.816147
C       0.722723   -0.582111    1.318587
C       2.126145   -2.988375    1.232855
C       2.546812   -3.582774    0.079887
O       2.166812   -2.860512   -1.022544
H       1.042025    1.965913    0.034281
H      -0.435254    1.902653   -0.938255
H      -0.538847    1.921569    0.827221
H      -0.930040   -0.379732   -0.057576
H       0.217571   -0.855759   -2.043449
H       1.641996    0.078429   -1.589518
H       1.427261    0.130817    1.769597
H      -0.048255   -0.776509    2.072200
H       2.296683   -3.359378    2.231825
H       3.092268   -4.488531   -0.128011
