18

C      -0.088734    1.544366   -0.000590
C      -0.034004    0.027144   -0.023574
C       1.243161   -0.660497   -0.597428
O       1.995216   -0.202834    0.604927
C       0.690712   -0.712267    1.159718
C       0.460219   -0.656719    2.633137
C       0.880886   -1.889222    0.218561
N       0.824788   -3.144228    0.265847
O       1.185315   -3.723727   -0.972657
H       0.874424    1.960010    0.300885
H      -0.345327    1.935363   -0.990502
H      -0.855911    1.892898    0.699064
H      -0.980843   -0.428675   -0.332463
H       1.724279   -0.563077   -1.567202
H       0.452503    0.379148    2.984147
H      -0.502816   -1.115563    2.876063
H       1.246510   -1.202086    3.161927
H       1.111067   -4.664278   -0.779022
