16

C      -0.014212    1.448603    0.183636
C       1.355331    0.822790    0.007475
C       1.993742    0.509651    1.329371
C       1.342376   -0.501885    1.903461
C       0.578441   -0.835345    3.162083
O      -0.632299   -0.866002    2.345420
C       0.169307   -0.987312    1.104745
C       0.072670   -0.033123   -0.063320
H      -0.297686    1.788889    1.173635
H      -0.400834    2.047506   -0.634165
H       1.931179    1.058322   -0.880754
H       2.706537    1.175501    1.802707
H       0.779705   -1.819990    3.604931
H       0.535931   -0.075670    3.949000
H       0.159055   -2.036698    0.784157
H      -0.273694   -0.407521   -1.018640
