16

N      -0.148315    1.303891   -0.047382
C      -0.142336    0.059295   -0.233232
O      -1.063437   -0.713469    0.401908
C      -0.962988   -2.082649    0.222639
C      -1.144423   -2.760985   -1.086346
C      -2.152732   -3.042587    0.038933
C      -1.517721   -3.964272    1.041814
O      -1.866197   -4.972397    1.582956
C      -0.299501   -3.018438    1.245685
H       0.588492    1.742984   -0.595475
H       0.532866   -0.516853   -0.877137
H      -1.569466   -2.150486   -1.876818
H      -0.457943   -3.531467   -1.425591
H      -3.206267   -2.841720   -0.107053
H       0.702007   -3.398770    1.025399
H      -0.323390   -2.604800    2.258126
