19

C      -0.125824    1.406265   -0.045996
O       0.011471    0.002209    0.011378
C       0.691068   -0.550654    1.144600
C       0.026348   -0.140941    2.467514
C       0.703425   -2.080023    0.941390
C       2.174812   -2.506969    1.009964
O       2.590405   -3.641110    1.009323
C       2.977544   -1.260188    1.079261
C       2.174865   -0.194652    1.140305
H       0.840411    1.930042   -0.025571
H      -0.611712    1.626640   -0.999599
H      -0.754335    1.804058    0.762003
H      -1.045733   -0.357416    2.426933
H       0.464500   -0.702871    3.297128
H       0.157998    0.923317    2.684129
H       0.110011   -2.628296    1.676805
H       0.307268   -2.314969   -0.050108
H       4.060560   -1.266763    1.083731
H       2.509126    0.835193    1.206190
