17

O       0.013306   -0.052068   -0.128012
C      -0.039942    1.159221   -0.035824
C      -1.346980    1.940675    0.045904
C      -1.239870    3.118711    1.030005
C      -0.096814    4.037513    0.613760
C       1.199107    4.088155    1.387979
C       1.130362    3.360001    0.063135
N       1.093179    1.930835    0.038122
H      -1.590978    2.315654   -0.956281
H      -2.126273    1.229690    0.326960
H      -2.181860    3.674337    1.064370
H      -1.072557    2.729418    2.040127
H      -0.392839    4.950009    0.106860
H       1.744433    5.024740    1.428638
H       1.271212    3.476277    2.281009
H       1.627990    3.819348   -0.787769
H       1.959806    1.411508    0.034902
