17

O       0.081504    1.238415   -0.458463
C       0.026795   -0.161687   -0.227939
C      -1.404585   -0.517513    0.136123
C      -2.400008   -0.429741   -1.056700
C      -2.270008   -1.966006   -1.257067
C      -1.686433   -2.054745    0.176197
O      -0.653226   -2.966273    0.468479
H       0.991158    1.474723   -0.662096
H       0.344850   -0.715712   -1.129409
H       0.697200   -0.462804    0.591501
H      -1.678937    0.041489    1.035019
H      -3.402724   -0.137498   -0.736514
H      -2.099119    0.213137   -1.885564
H      -3.170525   -2.543950   -1.476726
H      -1.512217   -2.214095   -2.008787
H      -2.474416   -2.268960    0.904126
H      -0.012799   -2.935903   -0.249311
