14

O      -0.170082    1.473395   -0.143651
C       0.035117    0.074410    0.002385
C      -1.356611   -0.655243   -0.061154
N      -1.493213   -1.369207   -1.372852
C      -0.217000   -1.251211   -1.930487
C       0.680407   -0.559429   -1.193877
O       1.860068   -0.574855   -1.785607
N       1.628565   -1.355237   -3.027698
N       0.422517   -1.720795   -3.039671
H       0.688480    1.910855   -0.132729
H       0.542184   -0.146288    0.949638
H      -1.415818   -1.394669    0.742015
H      -2.154028    0.076997    0.076848
H      -2.228879   -0.985737   -1.955621
