16

C      -0.050644    1.455751    0.018632
N      -0.000884    0.008277   -0.005654
C       0.035474   -0.785385   -1.144559
C       0.042091   -2.095091   -0.763233
C       0.030815   -2.116858    0.670560
C       0.049890   -3.225302    1.541787
N       0.067720   -4.110734    2.292461
C       0.006287   -0.791446    1.099126
N      -0.096383   -0.259468    2.382604
H      -0.169187   -0.995879    3.074690
H       0.666807    0.359198    2.634949
H       0.948617    1.898941    0.106112
H      -0.510126    1.815008   -0.903974
H      -0.657334    1.780686    0.867330
H       0.052954   -0.330047   -2.120996
H       0.058666   -2.956714   -1.410464
