16

C       0.065549    1.481100   -0.356353
N       0.039807    0.042181   -0.101017
C      -1.042140   -0.462077    0.780500
C      -0.161110   -1.663751    1.247944
N      -0.329569   -1.449014    2.718613
C      -0.339548   -0.060364    2.160933
C      -0.505055    1.103497    2.987131
N      -0.654804    2.047460    3.639929
C       0.777786   -0.436887    1.094074
H       1.036262    1.748573   -0.784663
H      -0.704327    1.724315   -1.094881
H      -0.102127    2.102278    0.536975
H      -2.104499   -0.425341    0.531976
H      -0.056129   -2.639260    0.779566
H      -1.272591   -1.713109    3.015629
H       1.857769   -0.378296    1.223934
