21

C       0.070781    1.561528   -0.105461
C      -0.023998    0.041461    0.052225
C      -1.458204   -0.508886    0.067916
C      -2.299110    0.012245    1.244788
O      -2.081054   -0.200834   -1.183808
C      -2.928470   -1.282703   -1.571107
C      -2.212655   -2.550038   -1.099923
C      -1.434017   -2.048439    0.115822
O      -0.899390   -2.711498    0.965368
H       1.116733    1.868501   -0.199821
H      -0.463055    1.890483   -1.001147
H      -0.349188    2.090922    0.754934
H       0.505855   -0.439470   -0.778464
H       0.468225   -0.289768    0.973024
H      -2.394826    1.099016    1.192934
H      -3.306795   -0.414875    1.228336
H      -1.831431   -0.264997    2.193510
H      -3.919440   -1.194163   -1.099847
H      -3.061516   -1.222505   -2.653504
H      -2.861308   -3.388779   -0.840638
H      -1.487889   -2.899057   -1.844929
