16

O       0.164696    1.228183    0.411810
C      -0.041387   -0.086662   -0.018011
C      -1.511526   -0.432918   -0.098849
O      -2.149074   -0.256520   -1.374752
C      -1.864845   -1.580092   -0.930297
C      -0.754623   -2.305626   -1.656958
O       0.326241   -1.456874   -2.054254
C       0.620668   -0.328878   -1.368386
N       1.447918    0.529968   -1.788620
H       0.806467    1.601133   -0.216932
H       0.412118   -0.796175    0.701781
H      -2.115934   -0.153362    0.761101
H      -2.729765   -2.197423   -0.687839
H      -0.374928   -3.116318   -1.019704
H      -1.123093   -2.752082   -2.585264
H       1.831704    0.283719   -2.699718
