15

N      -0.023211   -1.154245   -0.067229
C      -0.031462   -0.002131    0.016756
C      -0.005622    1.453307    0.123285
C       1.414238    2.010757   -0.113969
N       1.430405    3.455248    0.011928
C       1.954805    4.232877    0.990828
C       1.641503    5.513416    0.605779
N       0.950627    5.458862   -0.566200
N       0.822107    4.214069   -0.924561
H      -0.688125    1.889879   -0.612005
H      -0.362175    1.748422    1.115866
H       2.117948    1.596283    0.609989
H       1.755958    1.744956   -1.116620
H       2.487775    3.824389    1.832901
H       1.870919    6.449856    1.087172
