20

C      -0.105332    1.395805   -0.008291
N       0.029804   -0.055081    0.053588
C       1.391470   -0.544326   -0.200449
C       0.841889   -0.538213    1.178053
C       0.740188   -2.075826    1.413560
C       0.037292   -2.608604    2.628625
C       2.149756   -2.532631    0.914136
C       1.472298   -2.079905   -0.407757
O       0.211475   -2.545754    0.136101
H       0.782724    1.949547    0.344146
H      -0.302680    1.691559   -1.043475
H      -0.961083    1.700659    0.602311
H       2.165588    0.130741   -0.548783
H       1.163890    0.142468    1.959147
H      -1.005924   -2.277277    2.635109
H       0.053747   -3.701722    2.643227
H       0.518877   -2.240615    3.540765
H       3.037280   -1.998386    1.267123
H       2.276407   -3.615260    0.970300
H       1.715495   -2.484741   -1.389308
