21

C      -0.100715    1.553842    0.701790
C       0.082383    0.152989    0.123367
O       0.960526   -0.558738    0.995856
C      -1.267087   -0.550745   -0.038669
C      -1.915648   -1.099917   -1.274876
C      -1.043417   -2.001483   -2.197571
C       0.364770   -2.294993   -1.733760
C      -0.791401   -2.955991   -1.043496
C      -1.617001   -2.032672   -0.102138
H       0.871583    2.037899    0.827492
H      -0.712425    2.170124    0.035027
H      -0.586620    1.502973    1.681722
H       0.555467    0.259477   -0.862138
H       0.664798   -1.474098    1.015860
H      -2.027334   -0.071812    0.580135
H      -2.886878   -0.754774   -1.608319
H      -1.360474   -2.247485   -3.202631
H       0.895046   -2.957143   -2.413584
H       1.014580   -1.588160   -1.238333
H      -0.920864   -4.030475   -1.023517
H      -2.326443   -2.447650    0.603183
