20

C       0.033759    1.471650   -0.055482
C       1.274923    0.675786   -0.020388
N      -0.089096    0.006046    0.044760
C       0.258919   -0.632726   -1.299656
C       0.663924    0.243853   -2.449320
C       1.649005   -0.031591   -1.340563
C       2.646883   -1.166743   -1.455477
C       1.795908   -2.374779   -1.954544
C       0.361100   -2.136374   -1.395177
H      -0.254508    1.958789    0.872493
H      -0.294957    2.002059   -0.941854
H       1.935085    0.671807    0.841916
H       0.846455   -0.288285   -3.376946
H       0.255066    1.233340   -2.612139
H       3.501108   -0.966817   -2.111221
H       3.052443   -1.381340   -0.459282
H       1.775262   -2.392045   -3.049519
H       2.211518   -3.335862   -1.639191
H       0.271302   -2.540758   -0.381367
H      -0.408083   -2.615230   -2.010307
