14

N       0.013973    1.307085    0.009402
N       1.253988    1.855299    0.000278
C       2.104087    0.845350   -0.013593
C       1.422439   -0.406259   -0.013827
C       0.048751   -0.053572    0.001565
N      -0.996980   -0.881468    0.007240
C      -0.662160   -2.168546   -0.003130
C       0.661391   -2.655525   -0.018770
C       1.727351   -1.771879   -0.024337
H      -0.797204    1.901872    0.020634
H       3.166648    1.039535   -0.022920
H      -1.489294   -2.874310    0.001078
H       0.827728   -3.726397   -0.026299
H       2.753046   -2.125770   -0.036327
