23

C      -0.019594    1.629943    0.024093
C      -0.000754    0.098492    0.083993
C      -1.380641   -0.544703   -0.093423
C      -2.058939   -0.325283   -1.466034
C      -3.184517   -1.376173   -1.495631
C      -2.570724   -2.594625   -0.809354
O      -1.631412   -3.293665   -1.662605
C      -0.520222   -2.936399   -0.816127
C      -1.419615   -2.075435    0.098075
H       0.978477    2.043316    0.199432
H      -0.359636    1.990695   -0.951868
H      -0.690371    2.047450    0.783623
H       0.684386   -0.283836   -0.683245
H       0.416193   -0.218094    1.049231
H      -2.046294   -0.119097    0.673036
H      -2.426827    0.694938   -1.601301
H      -1.343864   -0.524098   -2.273568
H      -4.046854   -1.030622   -0.911187
H      -3.537931   -1.616093   -2.502487
H      -3.306354   -3.285253   -0.382296
H      -0.082052   -3.816725   -0.328070
H       0.268466   -2.416665   -1.373698
H      -1.421714   -2.371344    1.148322
