19

C      -0.279262    1.395709   -0.255698
N      -0.171742   -0.055737   -0.304527
C      -1.145037   -0.755004    0.039438
O      -2.404863   -0.383387    0.532965
C      -2.769335   -1.771645    0.775655
C      -3.516843   -2.451942   -0.395522
C      -4.534348   -1.652637   -1.187710
N      -2.206193   -2.683183   -1.084993
C      -1.448930   -2.237299    0.119428
H       0.577699    1.797633    0.294939
H      -0.218920    1.792528   -1.275414
H      -1.203096    1.760893    0.207781
H      -3.093207   -1.926450    1.803768
H      -3.962077   -3.387899   -0.028615
H      -4.115868   -0.685658   -1.475120
H      -4.817301   -2.191159   -2.097472
H      -5.440534   -1.482473   -0.596153
H      -2.036198   -3.652046   -1.326177
H      -0.706527   -2.913134    0.541534
