21

C      -0.228970    1.560239    0.061534
C       0.034702    0.058562   -0.006554
C       0.808046   -0.468710   -1.247250
C       2.218937    0.134619   -1.277657
O       2.877729   -0.457642   -0.130628
C       1.928192   -1.388176    0.435807
C       1.160070   -1.900111   -0.781598
C       0.894486   -0.518953    1.190475
O       1.529306    0.449346    1.994284
H       0.692894    2.143922    0.118351
H      -0.794004    1.895535   -0.814984
H      -0.811160    1.806621    0.954089
H      -0.935349   -0.452800    0.000753
H       0.272053   -0.375758   -2.193502
H       2.766111   -0.141993   -2.187844
H       2.238220    1.224564   -1.183038
H       2.481711   -2.100821    1.047621
H       0.283142   -2.499508   -0.523576
H       1.793530   -2.456851   -1.476948
H       0.271142   -1.120761    1.859445
H       2.355861    0.657088    1.534664
