20

C      -0.116803    1.389567    0.000848
O       0.136683    0.007484    0.063599
C       0.700904   -0.533258   -1.126622
C       1.226684   -1.952747   -0.821503
C       0.853494   -2.814904   -2.048576
C      -0.211313   -1.998338   -2.752806
C      -1.005402   -2.567328   -3.885758
C      -0.285204   -0.764700   -2.249432
H       0.796058    1.962227   -0.231073
H      -0.879380    1.646983   -0.750062
H      -0.483471    1.697447    0.983682
H       1.512337    0.140877   -1.455940
H       2.294245   -1.966620   -0.590958
H       0.691626   -2.300928    0.066501
H       1.714451   -2.971708   -2.713741
H       0.498172   -3.816131   -1.775149
H      -1.564365   -3.456073   -3.565661
H      -1.717884   -1.842367   -4.288340
H      -0.350503   -2.892906   -4.704295
H      -0.947679    0.012501   -2.615583
