19

C      -0.136836    1.511519    0.030675
C       0.007858   -0.010803   -0.040918
C       0.818078   -0.494358   -1.257257
C       2.289008   -0.075852   -1.239508
N       0.714875   -1.958975   -1.356539
N      -0.110539   -2.568570   -2.199832
C       0.095845   -3.843426   -1.889036
N       1.001232   -4.001150   -0.900275
N       1.383430   -2.789206   -0.569453
H       0.825218    2.010552    0.179293
H      -0.586012    1.912477   -0.884791
H      -0.783703    1.792279    0.866583
H       0.483152   -0.393800    0.869297
H      -0.985534   -0.469921   -0.095676
H       0.339038   -0.137408   -2.172986
H       2.815108   -0.472527   -2.111620
H       2.365153    1.013549   -1.262357
H       2.786957   -0.444644   -0.339754
H      -0.405971   -4.660561   -2.381123
