12

N       0.114178    1.436273    0.078851
C       0.014290    0.053415    0.011244
C      -1.095099   -0.769673   -0.000129
N      -2.436238   -0.322559   -0.028768
N      -0.671582   -2.066136    0.003239
N       0.625356   -2.105280    0.008935
N       1.054753   -0.809173    0.030314
H       0.769264    1.836959   -0.582130
H      -0.804760    1.844111   -0.057283
H      -2.893708   -0.471559    0.866575
H      -2.968978   -0.848308   -0.714981
H       2.041660   -0.615134    0.073779
