19

C      -0.021586    1.448196    0.036677
C       0.042364   -0.052235    0.010263
C       0.613601   -0.966895   -1.114937
C       0.080904   -1.927052   -0.007653
O       0.012568   -3.304244   -0.020014
C       0.746157   -0.989034    1.042700
C      -1.194458   -1.034865    0.057683
C      -2.043431   -1.051627    1.229648
C      -2.771057   -1.043803    2.187879
H       0.983333    1.883684    0.025479
H      -0.566071    1.835601   -0.831089
H      -0.532401    1.797780    0.939851
H       0.080674   -0.968682   -2.070031
H       1.697936   -0.935391   -1.252984
H       0.908779   -3.655757    0.013772
H       1.839958   -0.958072    1.046777
H       0.331977   -1.007992    2.051907
H      -1.791103   -1.043822   -0.860450
H      -3.411717   -1.050632    3.034574
