19

C       0.282859    1.343852   -0.162691
N       0.571693   -0.058150    0.067743
C       0.149654   -0.724505    1.178709
O      -0.497886   -0.197864    2.069551
C       0.529776   -2.201467    1.229288
C       0.965784   -2.595692    2.647891
N       1.154157   -4.030438    2.808446
C       2.220651   -4.683506    2.284045
O       3.095104   -4.158591    1.623887
H       1.202016    1.938209   -0.212968
H      -0.278163    1.487338   -1.092778
H      -0.320359    1.691668    0.676543
H       1.128487   -0.556428   -0.606180
H      -0.359160   -2.780828    0.951084
H       1.323184   -2.452102    0.520377
H       1.908476   -2.094998    2.889782
H       0.212401   -2.255862    3.359692
H       0.475263   -4.559974    3.330294
H       2.211423   -5.764806    2.527994
