21

C      -0.296993    1.460703    0.165939
C      -0.046158   -0.022721    0.000462
C       0.650609   -0.610807   -1.212059
C       1.217721    0.273242   -2.321400
C       2.719133    0.578046   -2.126085
C       2.969134    1.132980   -0.735913
O       3.460654    2.220658   -0.537972
C       2.565668    0.205876    0.406731
C       1.324665   -0.641453    0.150790
H       0.543747    2.079291   -0.158859
H      -1.177272    1.776180   -0.405740
H      -0.484056    1.703208    1.217696
H      -0.857640   -0.634182    0.387625
H       0.255274   -1.560810   -1.557707
H       1.079383   -0.220587   -3.287680
H       0.669342    1.219750   -2.385871
H       3.286107   -0.356847   -2.229838
H       3.088225    1.293048   -2.864661
H       3.421429   -0.471415    0.542363
H       2.492323    0.800667    1.322446
H       1.347257   -1.606212    0.648927
