16

C      -0.803822    1.064620    0.602168
C      -0.180056   -0.236738    0.205669
C      -0.046601   -0.739047   -1.074414
N       0.633671   -1.905961   -0.985868
N       0.954028   -2.228836    0.280016
C       0.461571   -1.224072    1.000771
N       0.698811   -1.249579    2.385562
C      -0.173728   -0.896701    3.377284
O      -1.267930   -0.401440    3.228632
H      -1.162121    1.600890   -0.281155
H      -1.634470    0.911970    1.293641
H      -0.081652    1.711914    1.113249
H      -0.375292   -0.341427   -2.022133
H       0.900756   -2.527865   -1.728662
H       1.496577   -1.804045    2.661510
H       0.260716   -1.110655    4.373663
