14

C      -0.335791    1.467213    0.030726
C       0.008725    0.007868    0.001580
N       0.171713   -0.546103   -1.150699
O       0.491248   -1.897855   -1.188534
C       0.647483   -2.696358   -0.055078
N       0.939717   -3.924438   -0.171343
C       0.457152   -2.042438    1.223921
C       0.150480   -0.741924    1.234590
F      -0.041104   -0.063532    2.361575
H       0.421012    2.032152    0.584543
H      -0.396672    1.847600   -0.989160
H      -1.293414    1.628369    0.536295
H       1.028856   -4.185357   -1.154113
H       0.570835   -2.633016    2.122560
