13

O       0.056179    0.023971   -0.074164
C       0.023999    1.211650    0.043764
C      -1.133239    2.245515    0.161855
C      -0.066083    3.335713   -0.066640
N       0.861009    3.202676    1.076527
C       1.057427    2.309116   -0.104601
C      -0.193864    4.528647   -0.824648
C      -0.325444    5.544642   -1.455816
H      -1.833556    2.128685   -0.668768
H      -1.667404    2.301994    1.111575
H       1.562355    3.939898    0.990728
H       1.987933    2.310177   -0.658226
H      -0.437541    6.439730   -2.016375
