14

C      -0.146951    1.410823   -0.037811
N      -0.035471   -0.035194    0.028119
N      -0.126127   -0.737402   -1.121085
C      -0.008594   -1.991787   -0.686517
O      -0.045369   -3.014842   -1.542947
N       0.147295   -2.140423    0.640059
C       0.125250   -0.880982    1.079555
C       0.255522   -0.457433    2.483364
O       0.393614   -1.223900    3.403818
H       0.082971    1.846767    0.932917
H       0.558165    1.786332   -0.781748
H      -1.160439    1.693199   -0.334308
H       0.058678   -3.820034   -1.020569
H       0.216886    0.639550    2.648379
