21

O      -0.082230    1.437735   -0.027315
C       0.011852    0.023034    0.051158
C      -1.399403   -0.543963   -0.036070
C      -1.446011   -2.070457    0.012831
C      -1.075674   -2.706251    1.399465
C      -2.416314   -3.423534    1.658988
C      -2.725968   -4.125393    0.318960
C      -2.885988   -2.638136   -0.060186
O      -3.387740   -2.391866    1.292499
H       0.803771    1.802872    0.050692
H       0.625409   -0.380832   -0.772088
H       0.489312   -0.291412    0.993203
H      -2.002771   -0.136163    0.781973
H      -1.848657   -0.187678   -0.971854
H      -0.831209   -2.486238   -0.794368
H      -0.223673   -3.390254    1.358251
H      -0.880282   -1.951571    2.165419
H      -2.595541   -3.877355    2.633706
H      -1.949870   -4.723538   -0.166595
H      -3.683120   -4.646904    0.341644
H      -3.546582   -2.282621   -0.851800
