18

C       0.518413    1.354873   -0.450823
C      -0.082248    0.087897    0.157512
O      -0.164222   -0.966847   -0.822522
C       1.048623   -1.693889   -0.821611
C       1.681198   -1.464093    0.551343
O       2.725981   -1.912567    0.943947
C       0.732111   -0.534718    1.310461
C       1.435513    0.376152    2.310651
H       1.566794    1.214248   -0.736733
H      -0.044256    1.629693   -1.346776
H       0.471979    2.189485    0.255149
H      -1.114715    0.287622    0.458737
H       0.841525   -2.755761   -0.993043
H       1.746856   -1.357001   -1.603769
H       0.051881   -1.211368    1.849650
H       2.098572    1.086230    1.809237
H       0.716948    0.942923    2.909896
H       2.049784   -0.227570    2.983872
