16

C       0.052784    1.561948    0.017862
C      -0.014594    0.069541    0.008797
C      -1.123865   -0.724863    0.027233
N      -2.435913   -0.424280    0.078623
C      -0.743249   -2.170327   -0.001911
O      -1.551942   -3.071168   -0.021089
C       0.769204   -2.243916   -0.014797
C       1.191990   -0.769529   -0.019855
O       2.337349   -0.367924   -0.044028
H       1.099149    1.874269   -0.013889
H      -0.463473    2.000044   -0.845813
H      -0.406869    1.984822    0.919836
H      -2.773789    0.512377   -0.052479
H      -3.081990   -1.192263   -0.022475
H       1.155666   -2.769365    0.864707
H       1.142153   -2.775391   -0.896123
