20

C       0.024913    1.495241    0.126153
C       0.005202    0.002037   -0.030814
C       0.905237   -0.784876   -1.022769
C       0.691670   -1.831908    0.088410
O       0.661877   -0.742394    1.060840
C      -0.790991   -2.171816   -0.035696
C      -1.304164   -3.402112   -0.673622
N      -1.452659   -3.182816    0.781700
C      -1.353618   -0.741645   -0.130795
H       1.049877    1.862745    0.226228
H      -0.434930    1.975492   -0.743785
H      -0.538190    1.793491    1.016486
H       0.537919   -0.993030   -2.031287
H       1.926219   -0.400444   -1.034043
H       1.397020   -2.631607    0.321345
H      -2.234713   -3.382285   -1.235001
H      -0.585958   -4.142034   -1.021851
H      -0.766725   -3.733563    1.294214
H      -2.003642   -0.510880    0.715998
H      -1.886824   -0.535650   -1.063478
