20

C      -0.106430    1.490551    0.040660
N       0.134385    0.059568   -0.089933
C       0.693613   -0.555695   -1.258741
C      -0.042168   -1.670925   -1.943192
C       1.814606    0.286537   -1.908418
C       2.581546    0.314978   -0.553137
C       1.459950   -0.512014    0.090163
C       1.638952   -1.599485    1.065848
O       2.714414   -1.964917    1.481394
H       0.661653    2.134757   -0.407034
H      -1.065977    1.724389   -0.430099
H      -0.181048    1.735457    1.103995
H      -0.709419   -1.264599   -2.713666
H       0.650854   -2.359820   -2.436444
H      -0.653859   -2.228800   -1.230798
H       2.349848   -0.272578   -2.678504
H       1.504123    1.246562   -2.331619
H       3.515536   -0.247057   -0.580821
H       2.775459    1.293869   -0.106234
H       0.687730   -2.077518    1.386279
