20

O      -0.202255    1.272793    0.366379
N      -0.032750   -0.121614    0.237494
C      -1.134228   -0.689707   -0.046163
C      -2.498390   -0.048566   -0.208512
C      -3.415158   -1.211896   -0.645922
C      -2.726696   -2.452458   -0.083684
C      -3.259117   -3.120036    1.160753
C      -3.322540   -3.824254   -0.177604
C      -1.230910   -2.190636   -0.235402
H       0.689489    1.563721    0.583180
H      -2.807748    0.373346    0.755380
H      -2.468979    0.786951   -0.913202
H      -4.444794   -1.102266   -0.294891
H      -3.449099   -1.269571   -1.741314
H      -2.547393   -3.484318    1.894573
H      -4.186852   -2.750583    1.586076
H      -4.292771   -3.929771   -0.652805
H      -2.656151   -4.664912   -0.342901
H      -0.899144   -2.457401   -1.249191
H      -0.603527   -2.743856    0.467409
