18

C       0.256532    1.506222   -0.144124
C       0.026787    0.028775    0.098050
O       0.812248   -0.813409   -0.784813
C       1.316258   -1.599270    0.310053
C       2.843216   -1.697000    0.328809
C       3.362674   -2.485180   -0.785742
N       3.770126   -3.117760   -1.662352
C       0.655198   -0.650297    1.349263
O       1.496449    0.111575    2.175622
H       1.314366    1.779087   -0.058290
H      -0.059817    1.764872   -1.158687
H      -0.321217    2.109077    0.563221
H      -1.041627   -0.204086   -0.003781
H       0.884979   -2.608767    0.304492
H       3.286244   -0.697174    0.291220
H       3.160851   -2.155736    1.272056
H      -0.055247   -1.140712    2.016945
H       1.965497    0.760447    1.641072
