21

C       0.920381   -0.426013   -1.176241
C       0.053438   -0.024005    0.019223
C      -0.022112    1.497236    0.169060
N      -1.289942   -0.567183   -0.145393
C      -2.249925   -0.429887    0.966648
C      -2.812444   -1.832784    0.597289
C      -1.464684   -2.032257   -0.154193
C      -3.149416   -2.748212    1.669921
N      -3.410314   -3.476933    2.528928
H       1.936608   -0.038670   -1.058503
H       0.990311   -1.513739   -1.276079
H       0.500168   -0.025054   -2.104197
H       0.515812   -0.440277    0.938257
H      -0.627600    1.787795    1.033332
H       0.978075    1.917314    0.309677
H      -0.466263    1.947008   -0.724743
H      -1.777716   -0.438361    1.961855
H      -2.938079    0.416688    0.898639
H      -3.648629   -1.754658   -0.100217
H      -1.508916   -2.499675   -1.141328
H      -0.733905   -2.568368    0.471936
