19

O       0.048865    0.032872   -0.535130
C       0.021892    1.150188   -0.073368
C      -1.269303    1.905090    0.213389
C      -1.370582    3.260291   -0.526395
C      -0.428217    4.369966   -0.022364
C       1.028592    3.956510    0.166649
C       1.623854    2.977333   -0.870321
C       1.317545    1.907902    0.210085
O       1.138043    2.939117    1.203057
H      -2.093930    1.250072   -0.077766
H      -1.326619    2.078898    1.294767
H      -1.212757    3.091137   -1.598503
H      -2.400541    3.620195   -0.433369
H      -0.473892    5.222894   -0.711632
H      -0.779556    4.735115    0.950923
H       1.643460    4.828786    0.412414
H       1.133897    2.883996   -1.840597
H       2.696073    3.113743   -1.015145
H       2.112690    1.201411    0.460840
