17

C      -0.084347    1.542236    0.049860
C       0.032284    0.027817   -0.043671
C       1.170795   -0.584532   -0.943528
C       1.719551   -1.278502    0.306908
O       2.018194   -0.245924    1.260187
C       0.661784   -0.712379    1.162753
C      -0.007842   -1.194626    2.408100
H       0.870891    1.975398    0.359474
H      -0.360936    1.977100   -0.916509
H      -0.847774    1.840059    0.777510
H      -0.931863   -0.422878   -0.302764
H       0.789988   -1.274351   -1.700623
H       1.857170    0.127568   -1.409601
H       2.282371   -2.201913    0.392030
H      -0.315956   -0.351783    3.037672
H      -0.902960   -1.777628    2.167537
H       0.673249   -1.820251    2.991299
