12

O       0.006615   -0.022979   -0.050495
C       0.047405    1.177519   -0.104588
C       1.279647    1.980737   -0.039363
C       1.403508    3.412583    0.379797
C       1.800320    3.024887   -1.032562
C       3.065764    2.201763   -0.955606
O       4.121179    2.161359   -1.490254
O       2.577168    1.349443    0.030763
H      -0.866464    1.804549   -0.209098
H       0.480756    3.981732    0.445975
H       2.160023    3.659487    1.116912
H       1.343414    3.438582   -1.919768
