17

O      -0.221111    1.348746    0.327807
C       0.081383    0.053840   -0.180376
C      -1.228854   -0.711656   -0.249726
N      -2.138264   -0.015988   -1.163418
C      -3.500047   -0.534142   -1.192622
C      -4.273744    0.294632   -2.242627
O      -5.214642    0.983665   -1.969830
C      -3.514049   -1.941169   -1.616444
N      -3.550176   -3.042447   -1.964344
H       0.552139    1.909845    0.222659
H       0.520976    0.114279   -1.185889
H       0.783623   -0.481536    0.475119
H      -1.042329   -1.723276   -0.624825
H      -1.643297   -0.802946    0.768955
H      -2.167891    0.959252   -0.878205
H      -4.047994   -0.459137   -0.238288
H      -3.843738    0.224793   -3.261835
