17

N      -0.096582    1.313111    0.127775
C      -0.024131    0.050092    0.018698
C      -1.273464   -0.791884   -0.075307
C      -1.212485   -1.767385   -1.264292
C       0.110530   -2.480612   -1.274805
C       1.184254   -1.973274   -0.672584
N       1.176841   -0.716518   -0.022641
C       2.331646   -0.292588    0.621958
O       3.383513   -0.885060    0.595730
H       0.818455    1.764082    0.132439
H      -1.359587   -1.375466    0.850480
H      -2.127546   -0.117358   -0.136314
H      -2.036960   -2.484266   -1.190696
H      -1.364495   -1.226546   -2.209179
H       0.200455   -3.434453   -1.781625
H       2.154163   -2.449977   -0.640752
H       2.173847    0.638790    1.189183
