23

C      -0.030380    1.475396   -0.154539
C       0.018180    0.025025   -0.032971
C       0.069781   -1.174031    0.068486
C       0.090895   -2.629004    0.187348
C      -1.304153   -3.258581    0.110160
C      -2.075718   -3.219072   -1.236010
C      -2.572745   -4.665120   -0.951120
C      -2.666906   -5.656478   -2.100251
C      -1.415456   -4.807165    0.078546
H       0.434996    1.965080    0.708358
H       0.495877    1.819493   -1.052086
H      -1.063073    1.836254   -0.220101
H       0.719926   -3.055846   -0.606496
H       0.566206   -2.916867    1.135622
H      -1.927067   -2.848560    0.911889
H      -2.821043   -2.433430   -1.379463
H      -1.383427   -3.200198   -2.086082
H      -3.530231   -4.623991   -0.418737
H      -1.718752   -5.714875   -2.647260
H      -2.906144   -6.663827   -1.740645
H      -3.445284   -5.365555   -2.814887
H      -0.529831   -5.258044   -0.385511
H      -1.618384   -5.329192    1.017478
