19

C      -0.212725    1.560343   -0.170624
C       0.034862    0.081513    0.029644
O       0.995040   -0.502652   -0.961190
C       1.855145   -0.787740    0.134450
C       2.635767   -1.812896    1.005240
C       2.220091   -0.551729    1.929929
C       2.701753    0.349125    0.787513
C       0.814606   -0.640832    1.225763
O       0.035162   -1.758304    1.611349
H       0.701496    2.154538   -0.164100
H      -0.707054    1.719470   -1.134850
H      -0.879407    1.930936    0.615298
H      -0.903290   -0.473093   -0.047807
H       2.130125   -2.750933    1.221219
H       3.708488   -1.934761    0.833512
H       2.454424   -0.450999    2.993227
H       3.771566    0.330208    0.572693
H       2.305201    1.361661    0.762765
H       0.055569   -1.806710    2.570603
