17

C      -0.371618    1.446196   -0.311840
C      -0.024997   -0.045357   -0.257836
C       0.867282   -0.519471   -1.399807
C       0.816313   -1.970920   -1.831792
N       0.296798   -0.934281   -2.681112
C      -1.038446   -0.827810   -3.056803
O      -1.747538   -1.769002   -3.304700
C       2.141803    0.172569   -1.502073
N       3.154108    0.728332   -1.545344
H       0.532690    2.061580   -0.302564
H      -0.939574    1.696325   -1.213284
H      -0.978619    1.724786    0.553613
H       0.492940   -0.270136    0.681666
H      -0.936081   -0.653921   -0.270227
H       1.724498   -2.458895   -2.171524
H       0.096373   -2.606986   -1.322653
H      -1.350204    0.225120   -3.176626
