17

C      -0.026542    1.557452    0.054181
C       0.049178    0.060856   -0.005570
C      -0.836437   -0.851435    0.822563
C       0.642002   -1.000074    1.014406
C       1.195296   -1.851672   -0.146585
C       0.680375   -0.745992   -1.102317
O       0.900401   -0.504020   -2.255811
C       1.318547   -0.725284    2.232059
C       1.903994   -0.490404    3.257418
H       0.883189    2.011432   -0.349112
H      -0.874449    1.928615   -0.531133
H      -0.153324    1.898019    1.086379
H      -1.367231   -0.337486    1.617389
H      -1.397883   -1.658411    0.358558
H       2.286472   -1.901567   -0.180417
H       0.780361   -2.858468   -0.248097
H       2.418335   -0.287752    4.163915
