19

O       0.032730    0.050814   -0.324383
C      -0.024660    1.225403   -0.089709
C      -1.155737    2.181689    0.327251
C      -0.060857    3.257901    0.605873
C       1.031369    2.335163   -0.013673
C       2.430753    2.139671    0.652342
C       3.108125    2.567360   -0.655464
C       2.662308    1.681540   -1.784525
C       1.744045    2.775190   -1.309291
H      -1.826460    2.421832   -0.503828
H      -1.763095    1.847800    1.172601
H      -0.200809    4.215237    0.099898
H       0.094491    3.444491    1.671315
H       2.572401    2.855419    1.466198
H       2.660304    1.132504    1.014736
H       3.996324    3.182657   -0.727717
H       3.141578    1.871831   -2.739582
H       2.404435    0.641505   -1.606482
H       1.395222    3.571275   -1.956938
