16

O       0.016078    0.033320    0.404129
C      -0.010618    1.153833   -0.019730
O      -1.188350    1.721268   -0.382848
C      -1.171435    3.017936   -0.997539
O      -0.313088    3.906036   -0.366811
C       1.034910    3.505252   -0.543620
C       1.900266    3.871617    0.674084
N       1.719775    2.492932    1.191452
C       1.234386    2.025536   -0.130173
H      -0.913181    2.893150   -2.061363
H      -2.187049    3.402118   -0.898795
H       1.394343    3.800877   -1.535617
H       2.927491    4.130661    0.385825
H       1.494553    4.654338    1.321549
H       2.547261    2.025115    1.539852
H       1.975925    1.495110   -0.740148
