17

C      -0.168155    1.562180   -0.004626
C       0.065905    0.055142    0.031664
C       0.908182   -0.528529   -1.114111
C       1.494310   -1.800168   -0.466485
O       1.628986   -1.486932    0.925518
C       0.828282   -0.412775    1.256986
N       0.766408    0.088783    2.408787
C       0.621296   -2.975425   -0.638469
N      -0.065031   -3.891529   -0.793819
H       0.781288    2.103467   -0.064176
H      -0.779854    1.841172   -0.867425
H      -0.677247    1.881708    0.907122
H      -0.904444   -0.460415    0.050520
H       0.341644   -0.742743   -2.020874
H       1.730617    0.148004   -1.367263
H       2.488029   -2.052176   -0.845904
H       1.363589   -0.413567    3.066793
