13

O       0.121779    1.339034    0.126192
C       0.081037   -0.004983    0.028698
N       0.109472   -0.687220   -1.103416
N       0.047501   -1.952504   -0.679930
N      -0.018276   -2.141999    0.634234
C       0.001552   -0.902365    1.116173
N      -0.046785   -0.529875    2.455455
C      -0.124094   -1.345308    3.561021
O      -0.164166   -2.549036    3.555132
H       0.174178    1.704486   -0.765273
H       0.051377   -2.726594   -1.321159
H      -0.020489    0.465349    2.619263
H      -0.145416   -0.732955    4.484667
