21

C      -0.608941    1.457140    0.032407
C      -0.113612    0.048866   -0.047147
C       0.157532   -0.664304   -1.141671
C       0.626725   -2.060055   -0.818212
C       0.202334   -2.212396    0.661594
O       1.053031   -3.024295    1.450179
C       0.144444   -0.768011    1.218205
C       1.438969   -0.350830    1.923964
O      -0.957514   -0.701289    2.130549
H       0.104795    2.110801    0.550864
H      -0.785296    1.877489   -0.961193
H      -1.547007    1.499358    0.597830
H       0.067415   -0.293711   -2.158129
H       0.187367   -2.827591   -1.466790
H       1.717995   -2.159983   -0.901209
H      -0.831405   -2.582711    0.700705
H       0.928866   -3.938344    1.179356
H       2.302434   -0.448528    1.260763
H       1.379858    0.696546    2.243655
H       1.605843   -0.983848    2.798263
H      -0.785136    0.005696    2.759717
