17

C      -0.058412    1.538550   -0.019628
C       1.349199    2.141153    0.098831
N       1.963426    1.729200    1.359752
C       1.871060    0.392569    1.670208
N       2.608563   -0.215181    2.573042
O       2.120468   -1.535588    2.594244
C       1.125798   -1.647498    1.701489
C       0.902797   -0.472379    1.064981
C      -0.022036   -0.004571   -0.019581
H      -0.657341    1.893212    0.826496
H      -0.532294    1.904198   -0.935347
H       1.952611    1.839477   -0.774216
H       1.289392    3.233433    0.091929
H       2.839042    2.168134    1.603162
H       0.671849   -2.624594    1.627986
H      -1.032576   -0.406680    0.108451
H       0.328901   -0.358963   -0.998071
