21

C       0.034999    1.514767    0.008341
C      -0.027626    0.000461    0.024417
C      -0.867746   -0.656100    1.088353
C       0.642419   -0.722721    1.183466
C       1.355505   -2.017930    0.919337
O       0.591860   -3.230166    0.883322
C       1.141059   -2.739064   -0.347712
C       0.153987   -2.178300   -1.361027
C       0.096424   -0.637213   -1.352024
H       0.966525    1.869090   -0.449142
H      -0.797837    1.939333   -0.565211
H      -0.017035    1.926180    1.021381
H      -1.385468   -0.014727    1.793541
H      -1.378709   -1.586574    0.872672
H       1.112614   -0.101027    1.939006
H       2.318003   -2.123683    1.419294
H       1.948552   -3.356163   -0.740965
H       0.423838   -2.516158   -2.366432
H      -0.833985   -2.599373   -1.147481
H      -0.734680   -0.306064   -1.987459
H       1.010795   -0.246396   -1.820759
