17

O       0.356432    1.085632    0.065468
C       0.080922   -0.284498   -0.074764
C      -1.448584   -0.586286   -0.061797
C      -2.145618   -0.024173   -1.310596
O      -1.959408    1.383646   -1.461664
C      -1.649280   -2.079141    0.025854
O      -1.782168   -2.813537   -0.928623
C      -1.661782   -2.718327    1.423655
O      -1.610511   -2.088878    2.446744
H      -0.151646    1.536049   -0.624291
H       0.503841   -0.702741   -1.003499
H       0.564483   -0.790057    0.767478
H      -1.847378   -0.132150    0.853090
H      -1.716364   -0.481333   -2.205404
H      -3.214594   -0.275163   -1.298721
H      -2.457854    1.827777   -0.766871
H      -1.740403   -3.825209    1.384688
