15

C      -0.017362    1.451846   -0.009354
N      -0.030884   -0.006600    0.003414
C      -1.200273   -0.708411   -0.109731
C      -1.166322   -2.071958   -0.093003
O      -2.311555   -2.791880   -0.203496
N      -0.005365   -2.757265    0.032751
C       1.108020   -2.088987    0.140479
C       1.215301   -0.636043    0.137382
O       2.249226    0.012135    0.237168
H       0.603722    1.807811   -0.834890
H      -1.037246    1.820892   -0.117800
H       0.423463    1.824857    0.918283
H      -2.117865   -0.145087   -0.209338
H      -2.046117   -3.719688   -0.167256
H       2.039703   -2.638568    0.241394
