16

C       0.080791   -1.151151    0.098902
C      -0.016205    0.048673    0.041434
C      -0.074626    1.456847   -0.034674
C      -1.153723    2.255699   -0.098876
C      -0.687417    3.680701   -0.008463
C      -0.162445    3.945479    1.445233
C       1.192878    3.511474    0.918043
C       1.139177    2.339415   -0.024443
N       0.763360    3.678715   -0.520343
H       0.149881   -2.209263    0.153316
H      -2.188738    1.943066   -0.060105
H      -1.320271    4.440351   -0.463863
H      -0.154458    5.015042    1.665579
H      -0.622955    3.398430    2.272876
H       2.148551    3.882691    1.276045
H       2.085392    1.952303   -0.387964
