17

N       0.028390   -1.135204   -0.085314
C       0.008623    0.021180   -0.033999
C       0.016772    1.454262    0.017867
C       0.532184    2.161571    1.269022
C       1.347054    2.195217    0.025073
C       2.708000    1.549135   -0.264999
C       2.879714    2.554984   -1.442628
C       1.669964    3.374731   -0.902053
H      -0.806351    1.926154   -0.509631
H      -0.003691    3.055762    1.570404
H       0.867173    1.533246    2.087340
H       3.425807    1.715293    0.543700
H       2.700089    0.485222   -0.513079
H       3.834964    3.079170   -1.502319
H       2.671607    2.097294   -2.412174
H       0.900995    3.664982   -1.622725
H       1.977855    4.264609   -0.344196
