18

O       0.263513    1.252055   -0.171303
C       0.022786   -0.110281   -0.026789
C       0.280839   -1.029593   -1.255584
C      -1.227427   -1.434382   -1.260164
C      -1.441357   -0.656202    0.059511
C      -1.055479   -1.449014    1.340601
C       0.342666   -0.740667    1.375414
C       1.535986   -1.553060    1.518459
N       2.486970   -2.209234    1.585351
H       1.174024    1.376074   -0.464028
H       0.592960   -0.463710   -2.136276
H       0.994133   -1.839710   -1.087382
H      -1.773547   -1.002139   -2.101354
H      -1.442452   -2.505244   -1.221188
H      -2.300786    0.008057    0.142160
H      -1.664884   -1.247832    2.222243
H      -0.997286   -2.529501    1.195034
H       0.353058    0.062983    2.116187
