15

O       0.111896   -0.071915    0.064263
C       0.046380    1.110133   -0.144085
C       1.230908    2.060167   -0.010291
C       1.359425    2.973792   -1.188134
C       2.001602    2.749269   -2.506847
C       2.424738    3.947886   -1.635683
C       1.297382    4.943438   -1.659239
O       1.141709    6.109314   -1.806486
O       0.321857    3.992756   -1.354970
H      -0.906127    1.598677   -0.442288
H       1.073823    2.666356    0.892590
H       2.139296    1.467124    0.122823
H       2.747877    1.961593   -2.553698
H       1.438411    2.911943   -3.419741
H       3.440298    4.115457   -1.308521
