23

C      -0.136506    1.621499   -0.198948
C      -0.054652    0.102538    0.000276
C      -1.451515   -0.520989    0.042348
O      -2.153306    0.023098    1.150802
C       0.789342   -0.595993   -1.082434
C       2.253918   -0.188944   -1.133831
C       3.072050   -0.379012    0.126173
C       2.940285   -0.195290   -2.435724
O       2.524912    1.035274   -1.840091
H       0.849208    2.089159   -0.148268
H      -0.557855    1.858467   -1.183330
H      -0.780215    2.065596    0.563441
H       0.394559   -0.098109    0.982116
H      -1.977360   -0.309613   -0.904171
H      -1.365997   -1.616487    0.132351
H      -3.059725   -0.295290    1.120168
H       0.746942   -1.683418   -0.927713
H       0.348070   -0.398761   -2.067157
H       3.050686   -1.425639    0.449294
H       4.111191   -0.088684   -0.045958
H       2.682783    0.231972    0.946172
H       4.017457   -0.354323   -2.478519
H       2.396767   -0.487428   -3.333998
