15

O       0.501918    1.015732   -0.674617
C       0.088167   -0.176028   -0.077040
C       0.230376   -0.357327    1.475299
C      -1.300329   -0.668300    1.575926
C      -1.437705   -0.393079    0.051908
O      -2.104802    0.877480    0.349817
C      -2.105567    0.597451    1.718098
N      -2.616428    1.229269    2.669088
H      -0.135921    1.693266   -0.414588
H       0.567743   -0.996018   -0.619804
H       0.869618   -1.193897    1.762480
H       0.549818    0.533999    2.018517
H      -1.630827   -1.562288    2.097416
H      -2.002617   -0.975703   -0.674791
H      -3.090281    2.075860    2.350163
