15

O       0.130855    1.514060    0.108401
C      -0.008706    0.138512   -0.019828
C      -1.468608   -0.335307   -0.207293
O      -1.371616   -1.545589   -0.946578
C      -0.394872   -1.357242   -1.956079
C       0.623313   -0.392079   -1.356537
O       1.673339   -0.047319   -1.813426
C       0.634269   -0.577402    1.152378
O       1.286297    0.029544    1.966473
H       0.757177    1.649954    0.838422
H      -1.993026   -0.557441    0.724414
H      -2.018176    0.447721   -0.749749
H       0.051558   -2.320677   -2.216200
H      -0.819862   -0.910302   -2.869534
H       0.465933   -1.668958    1.217433
