19

C      -0.121489    1.515600   -0.077074
C      -0.042832    0.017312    0.072973
N       1.257431   -0.614754   -0.174930
C       0.711848   -0.651520    1.180460
C       1.400176    0.015816    2.357214
C       0.686880   -0.649244    3.543865
O       0.237542   -1.938345    3.069220
C       0.189650   -1.947995    1.711127
N      -0.200997   -2.909060    0.988169
H       0.810184    1.992906    0.237115
H      -0.292159    1.781122   -1.125711
H      -0.947336    1.929005    0.512144
H      -0.918516   -0.535096   -0.263166
H       1.115241   -1.538956   -0.584252
H       2.467032   -0.228580    2.351798
H       1.300445    1.102413    2.372547
H       1.330664   -0.824082    4.407952
H      -0.189763   -0.076307    3.867967
H      -0.515165   -3.699461    1.550387
