22

C       0.343247    1.405735   -0.219253
C       0.100531   -0.078848    0.070963
C       0.624600   -0.541350    1.432375
C      -0.063713    0.141804    2.610282
C       0.795264   -2.074229    1.593020
C       2.291419   -1.757618    1.798443
C       3.303598   -2.390178    0.863897
O       2.072114   -0.355224    1.514992
H       1.402353    1.646173   -0.089602
H       0.060844    1.650088   -1.247683
H      -0.236522    2.054764    0.443875
H      -0.970873   -0.312948    0.010865
H       0.596013   -0.679249   -0.700754
H      -1.144898   -0.035363    2.586238
H       0.325498   -0.242579    3.557589
H       0.109464    1.221246    2.591603
H       0.274741   -2.528511    2.438063
H       0.579718   -2.645458    0.686520
H       2.618480   -1.886275    2.840443
H       2.982325   -2.300763   -0.178550
H       4.276304   -1.898240    0.965624
H       3.431917   -3.452587    1.100034
