19

C      -0.114489    1.501227   -0.144259
N       0.040664    0.060164   -0.028080
C      -1.160188   -0.724416    0.180579
C      -1.359802   -1.857973   -0.838510
N      -0.575635   -3.023547   -0.497143
C       0.721576   -2.973161   -0.085783
C       1.511849   -1.913263    0.199034
C       1.321290   -0.457106    0.091273
O       2.300284    0.282562    0.106017
H       0.870918    1.930078   -0.317880
H      -0.779966    1.750959   -0.979808
H      -0.532967    1.939616    0.772132
H      -1.197638   -1.149875    1.192936
H      -2.007825   -0.041117    0.089179
H      -2.412740   -2.158614   -0.844876
H      -1.113685   -1.473319   -1.839604
H      -0.928336   -3.918368   -0.787184
H       1.154606   -3.962568    0.038796
H       2.526755   -2.147356    0.495221
