15

C       0.035622   -1.177668    0.058625
C       0.040895    0.019836   -0.023925
C       0.065461    1.471177   -0.142653
N       1.355380    2.009352    0.281344
C       1.630815    3.341742    0.105371
N       2.841364    3.870516    0.032513
C       2.574503    5.203839   -0.080180
N       1.301917    5.541845   -0.091393
N       0.694387    4.316434    0.025446
H       0.022172   -2.237070    0.136265
H      -0.179309    1.757197   -1.179573
H      -0.723789    1.894586    0.494957
H       2.151582    1.421570    0.081808
H       3.354338    5.946592   -0.162175
H      -0.307550    4.262123    0.080528
