15

C       0.403456    1.404228    0.319593
O       1.221220    0.289394   -0.055315
C      -0.187639    0.089094    0.049056
C      -0.643446   -0.813237    1.168174
C       0.047961   -2.197968    1.246217
C       0.632829   -1.666518    2.568686
O      -0.102522   -0.427331    2.447712
H       0.510036    1.718956    1.354016
H       0.322621    2.195067   -0.424420
H      -0.695048   -0.074303   -0.904354
H      -1.742083   -0.835746    1.187768
H      -0.629953   -3.046417    1.344523
H       0.773966   -2.391856    0.456316
H       0.352235   -2.214926    3.475214
H       1.714634   -1.494605    2.568030
