23

C      -0.076744    1.593795   -0.056150
C       0.038236    0.079041   -0.027089
C       1.091529   -0.621817   -0.929125
C       1.394060   -1.609852    0.232030
C       2.828784   -2.042578    0.491023
C       0.724248   -0.601912    1.210919
O       1.717144    0.218175    1.801925
C      -0.174335   -1.161487    2.301128
O      -0.687041   -0.039255    3.021429
H       0.889325    2.054068    0.170787
H      -0.398302    1.943897   -1.043232
H      -0.804224    1.949146    0.681582
H      -0.945632   -0.378668   -0.183258
H       0.749780   -1.043314   -1.877960
H       1.947332    0.032502   -1.123804
H       0.745642   -2.490046    0.141196
H       3.473160   -1.173699    0.643956
H       2.905280   -2.675172    1.382334
H       3.215250   -2.616569   -0.358440
H       1.251479    0.751042    2.459502
H      -0.987879   -1.756094    1.860570
H       0.416053   -1.814774    2.961226
H      -1.079254   -0.349675    3.841954
