17

C      -0.024980    1.589588    0.010757
C       1.481403    1.833126   -0.003802
C       2.120485    0.676025    0.743436
C       0.985591   -0.240369    1.191987
C       0.035818    0.042524    0.002534
C       0.961032   -0.229030   -1.208635
C       2.104857    0.683273   -0.774912
H      -0.514365    1.986706    0.906748
H      -0.533358    1.995669   -0.870495
H       1.916793    2.823629   -0.003517
H       3.036888    0.795564    1.306114
H       1.283376   -1.292866    1.251634
H       0.553203    0.052525    2.154890
H      -0.919965   -0.480467    0.009770
H       1.257240   -1.280841   -1.284930
H       0.508903    0.073534   -2.159450
H       3.009534    0.808131   -1.355117
