21

C       0.002417    1.516929   -0.012927
C       1.452124    1.980500    0.053108
C       2.291271    0.764099    0.448864
C       1.325359   -0.361716    0.791748
C       0.041976   -0.037527   -0.007246
C       0.081488   -0.658912   -1.418436
C       1.441016   -0.532002   -2.109149
O       1.922704    0.799153   -2.147139
C       2.380914    1.352418   -0.945855
H      -0.530976    1.877817    0.873753
H      -0.524692    1.907888   -0.890120
H       1.662368    2.978889    0.422069
H       3.176027    0.870481    1.068780
H       1.712771   -1.364243    0.580008
H       1.123265   -0.321354    1.869143
H      -0.843831   -0.426798    0.503452
H      -0.163119   -1.727564   -1.355029
H      -0.690317   -0.193974   -2.043051
H       2.181586   -1.185028   -1.626357
H       1.361625   -0.846464   -3.154714
H       3.303601    1.897694   -1.129562
