16

C       0.010458    1.505265    0.004014
C      -0.007130    0.006851   -0.030671
C       0.543382   -0.968060   -1.140923
C       0.007436   -1.956273   -0.050524
C       0.648445   -0.993875    1.017045
C       2.097616   -0.973630    1.121431
N       3.248667   -0.943444    1.230332
C      -1.186078   -0.987086    0.014947
O      -2.375390   -0.990041    0.036840
H       1.035194    1.889053   -0.008027
H      -0.517053    1.911878   -0.864313
H      -0.486354    1.880107    0.904182
H       0.030958   -0.962531   -2.103706
H       1.628431   -0.959319   -1.254928
H       0.041180   -3.041928   -0.047002
H       0.200650   -1.008538    2.013233
