21

C      -0.077696    1.359835    0.075470
O       0.093110   -0.037583    0.057632
C       0.680355   -0.542128   -1.136959
C       1.286802   -1.901763   -0.783035
O       1.688455   -2.585979   -1.952810
C       0.599373   -2.932954   -2.782919
C      -0.400533   -1.819411   -2.986575
C      -1.441785   -2.054209   -4.043983
C      -0.335440   -0.717335   -2.238643
H       0.879687    1.887939   -0.058133
H      -0.773096    1.712718   -0.700816
H      -0.491495    1.621767    1.052630
H       1.483441    0.142113   -1.460385
H       2.177880   -1.784101   -0.161928
H       0.539250   -2.476412   -0.213651
H       1.032227   -3.235337   -3.744738
H       0.073750   -3.819822   -2.380151
H      -2.010900   -2.971042   -3.842750
H      -2.149197   -1.222968   -4.099320
H      -0.984542   -2.181890   -5.033636
H      -1.049356    0.088892   -2.390308
