15

C       0.016213    1.514433    0.008425
C       0.035421   -0.001299    0.002252
O       1.076749   -0.623311   -0.008975
C      -1.273929   -0.729816    0.009940
C      -2.525999   -0.114491    0.021909
N      -3.668930   -0.803424    0.028364
C      -3.545814   -2.131501    0.022708
N      -2.412105   -2.839819    0.011322
C      -1.286544   -2.129429    0.005034
H       1.042969    1.880175    0.001858
H      -0.515314    1.901642   -0.867783
H      -0.501643    1.894680    0.895789
H      -2.622189    0.968755    0.026524
H      -4.471534   -2.702155    0.027827
H      -0.345013   -2.671262   -0.004254
