22

C      -0.031549    1.647245    0.052857
C      -0.038627    0.116633   -0.048731
C      -1.484730   -0.437907    0.013419
C      -2.099642   -0.242464    1.322760
N      -2.566760   -0.080352    2.367794
C       0.715647   -0.465189   -1.283418
C       0.065701   -0.097839   -2.621027
C       2.189793   -0.036110   -1.272835
O       0.646031   -1.898429   -1.226701
H       0.983937    2.044816    0.118208
H      -0.522317    2.109407   -0.810181
H      -0.569053    1.968722    0.949905
H       0.488462   -0.279715    0.830762
H      -2.116863    0.049193   -0.737530
H      -1.468291   -1.506753   -0.218246
H       0.036685    0.984615   -2.768117
H       0.641828   -0.539664   -3.438130
H      -0.952800   -0.488338   -2.688346
H       2.658483   -0.261204   -0.306949
H       2.730305   -0.581967   -2.050927
H       2.309750    1.033973   -1.459970
H       1.180465   -2.192709   -0.480529
