16

N      -0.018235   -1.186306    0.055577
C      -0.012963   -0.031857    0.001329
C      -0.001965    1.430574   -0.070821
C      -0.732186    2.122508    1.122350
C       0.176640    3.295970    1.499391
C      -0.307870    4.638005    1.864532
O       0.175318    3.734922    2.860555
C       1.476261    3.047364    0.823829
C       1.400596    2.024856   -0.023578
H      -0.483323    1.703543   -1.019680
H      -1.747636    2.425520    0.862430
H      -0.791375    1.442126    1.975421
H       0.316065    5.512346    1.681111
H      -1.380421    4.829768    1.883831
H       2.350374    3.657874    1.014478
H       2.197376    1.645512   -0.650606
