14

N       0.087910    1.281331    0.006875
C      -0.026651    0.018308    0.004137
N      -1.237708   -0.660123    0.011697
C      -1.270558   -2.115370    0.007525
C      -2.738701   -2.426092    0.017911
C      -3.450776   -1.300380    0.026813
C      -2.547077   -0.116506    0.023632
O      -2.848050    1.048748    0.029333
H       1.075295    1.532703   -0.000025
H       0.812567   -0.690983   -0.004355
H      -0.775138   -2.529468   -0.882172
H      -0.761472   -2.534854    0.886926
H      -3.110110   -3.442309    0.017638
H      -4.524764   -1.182949    0.035397
