17

O       0.161561    1.339825    0.287438
C       0.015712   -0.030060    0.039377
C      -1.449868   -0.459369    0.024013
C      -1.525833   -1.960285   -0.274931
C      -0.833477   -2.339248   -1.565734
N      -1.242481   -3.323790   -2.257266
N       0.269940   -1.537313   -1.907383
C       0.687194   -0.380043   -1.287797
O       1.549011    0.331879   -1.765963
H       0.899840    1.627527   -0.272011
H       0.540317   -0.625559    0.811520
H      -1.908214   -0.234595    0.990488
H      -1.986289    0.121670   -0.734542
H      -1.042863   -2.518434    0.538786
H      -2.552760   -2.321691   -0.338326
H      -0.664573   -3.481207   -3.085802
H       0.744595   -1.738194   -2.779677
