22

O      -0.681320    1.457144    1.183117
C      -0.770957    0.043607    1.272930
C      -1.321427   -0.470184   -0.055111
C      -1.412596   -1.982169   -0.063292
C      -2.644453   -2.773390    0.219964
C      -4.010074   -2.098770    0.188084
C      -4.132629   -1.476851   -1.227730
C      -2.952810   -2.080365   -2.039487
N      -2.039577   -2.791005   -1.126469
H      -0.329559    1.790117    2.013738
H       0.215559   -0.407910    1.467293
H      -1.437147   -0.264890    2.094837
H      -2.285033    0.012826   -0.227175
H      -0.650508   -0.133248   -0.855617
H      -0.477137   -2.443799    0.257105
H      -2.559543   -3.692270    0.795831
H      -4.783503   -2.854906    0.354275
H      -4.127502   -1.348505    0.977117
H      -5.094785   -1.717423   -1.688115
H      -4.071777   -0.386850   -1.188820
H      -3.316502   -2.820469   -2.759477
H      -2.406797   -1.320799   -2.608575
