19

C      -0.029543    1.570113    0.074551
C       0.061410    0.037121    0.020941
C       0.973554   -0.492597    1.134799
C      -1.346927   -0.573824    0.030487
C      -1.521530   -2.122893    0.077239
C      -2.320733   -1.885477    1.381273
O      -2.943170   -2.561346    2.154688
N      -2.070850   -0.533452    1.315259
H       0.961493    2.026349   -0.009759
H      -0.651655    1.965835   -0.735405
H      -0.462875    1.903886    1.025139
H       0.500143   -0.240225   -0.948383
H       0.555528   -0.273145    2.122055
H       1.124840   -1.573831    1.069188
H       1.958873   -0.020455    1.074355
H      -1.931064   -0.123725   -0.782690
H      -2.118774   -2.547811   -0.731428
H      -0.608866   -2.706554    0.201540
H      -2.485480    0.230493    1.828996
