18

C       0.007306    1.330059   -0.047722
O      -0.083295   -0.085144   -0.022522
C      -1.361726   -0.569991   -0.003016
C      -2.448608   -0.449774    1.119185
C      -3.047844   -1.375355    0.023701
C      -2.515561   -0.379482   -1.045959
C      -1.658178   -2.100063   -0.017521
C      -1.304439   -2.878709   -1.193186
N      -1.025442   -3.512653   -2.119102
H       1.070004    1.576802   -0.070992
H      -0.478046    1.748189   -0.939666
H      -0.446184    1.779253    0.846387
H      -2.214348   -0.907702    2.083222
H      -2.929680    0.523227    1.234062
H      -4.015005   -1.869125    0.037047
H      -3.001364    0.598051   -1.066928
H      -2.344947   -0.773356   -2.049119
H      -1.378978   -2.635571    0.893236
