17

C       0.032101    1.424023    0.072308
C       1.282169    0.664059   -0.100375
C       1.769397    0.100744    1.229834
C       0.366488   -0.538433    1.364537
C       0.183792   -2.041397    1.622531
O      -0.663410   -1.790101    2.763518
C      -0.579139   -0.365112    2.567123
N      -0.057945   -0.050250    0.008114
H      -0.174617    1.929257    1.014244
H      -0.393918    1.907390   -0.801171
H       1.843993    0.670485   -1.028369
H       2.553355   -0.652799    1.123973
H       2.078343    0.826928    1.988507
H      -0.342777   -2.565811    0.816267
H       1.090209   -2.596398    1.896746
H      -0.159100    0.146919    3.442437
H      -1.551181    0.079624    2.316338
