13

O       0.001275    1.340817   -0.398903
C      -0.017857    0.065578    0.203240
C      -1.396335   -0.528018    0.186621
N      -1.970222   -1.085761    1.222833
O      -3.211560   -1.492437    0.739657
C      -3.252984   -1.122688   -0.543081
C      -4.458190   -1.400908   -1.365608
O      -5.436968   -1.961128   -0.949874
N      -2.170138   -0.526511   -0.950838
H      -0.382226    1.251093   -1.279107
H       0.670979   -0.635089   -0.294914
H       0.314626    0.181174    1.237090
H      -4.352375   -1.034495   -2.404230
