21

C       0.387638    1.565733    0.137916
C      -0.087801    0.125455    0.188768
O       0.432303   -0.674366   -0.901656
C       1.157750   -1.548707   -0.022012
C       1.010894   -3.075778   -0.181874
C       2.524195   -3.209473    0.146011
C       2.688268   -1.700892   -0.185013
C       0.580211   -0.821929    1.223393
O       1.451417   -0.292084    2.185648
H       1.480784    1.631221    0.104061
H       0.004213    2.052308   -0.763702
H       0.030699    2.121724    1.010741
H      -1.184944    0.093874    0.200044
H       0.287566   -3.585083    0.461265
H       0.796732   -3.324859   -1.225261
H       2.698946   -3.413777    1.205037
H       3.104135   -3.917180   -0.448670
H       2.968973   -1.532333   -1.228485
H       3.338200   -1.103127    0.460839
H      -0.135788   -1.432152    1.779073
H       2.090960    0.274740    1.742005
