18

C      -0.037251    1.372173    0.052374
O       0.022991   -0.037008    0.024091
C       0.632968   -0.582619   -1.069164
C       0.728910   -1.947526   -1.247247
N       0.291653   -3.056654   -0.490867
N       1.398926   -2.137300   -2.443980
C       1.713754   -0.939605   -3.014612
N       2.438616   -0.916153   -4.228220
C       1.244725    0.063544   -2.183899
H       0.965657    1.821573    0.053679
H      -0.598379    1.772036   -0.803896
H      -0.551648    1.646085    0.975980
H      -0.692190   -2.971641   -0.254953
H       0.792973   -3.130401    0.390023
H       1.665322   -3.037961   -2.803592
H       1.828356   -0.957051   -5.040347
H       2.979336   -0.062669   -4.302635
H       1.321537    1.122323   -2.373330
