21

O      -0.089527    1.519028    0.855380
C       0.053095    0.252288    0.220956
C       0.607975   -0.827339    1.169488
O      -0.509972   -1.494105    1.752334
C      -1.704649   -0.856859    1.307824
C      -1.358347   -0.265708   -0.059746
C      -2.416707    0.662483   -0.706602
C      -2.845357   -0.510593   -1.632124
C      -1.539770   -1.259324   -1.246169
H       0.777477    1.803768    1.160538
H       0.655912    0.343071   -0.693748
H       1.219170   -1.563950    0.631026
H       1.232838   -0.373804    1.952638
H      -2.498050   -1.610402    1.276158
H      -2.003385   -0.055949    2.000878
H      -3.174160    1.078792   -0.037469
H      -1.953988    1.488993   -1.251495
H      -3.740383   -1.021513   -1.267317
H      -2.990424   -0.282632   -2.690317
H      -0.758048   -1.144133   -2.003675
H      -1.617502   -2.318885   -0.989030
