13

O      -0.503134    0.268184    0.082299
C       0.030354    1.344892    0.111513
C       1.442926    1.611028   -0.388412
C       1.470877    2.760222   -1.369445
O       1.220692    4.066542   -0.847701
C       2.523442    3.802457   -1.369003
C       3.609728    3.763342   -0.413983
N       4.490186    3.727535    0.333865
H      -0.483565    2.240066    0.524069
H       2.066183    1.859813    0.479714
H       1.831714    0.699163   -0.850269
H       0.991042    2.573051   -2.330769
H       2.761830    4.312306   -2.300272
