19

C      -0.061890    1.561454    0.019471
C      -0.014002    0.031612   -0.017713
C       0.752568   -0.527133   -1.210419
C       0.851488   -2.049895   -1.236721
C       1.517622   -2.491418   -2.544005
N       0.970079   -1.823006   -3.721849
C       0.325557   -0.750328   -3.546077
O       0.083010   -0.061770   -2.404193
H       0.945792    1.986999    0.083377
H      -0.536325    1.957242   -0.881858
H      -0.627916    1.913420    0.886817
H       0.461226   -0.353292    0.893111
H      -1.031343   -0.377797   -0.040033
H       1.766210   -0.098356   -1.227397
H       1.413237   -2.402266   -0.365229
H      -0.158386   -2.472681   -1.170256
H       2.599136   -2.301977   -2.507968
H       1.405465   -3.571801   -2.687051
H      -0.140904   -0.238670   -4.386714
