16

O      -0.046619    1.414340    0.032639
C       0.042944    0.001438   -0.042021
C      -1.380300   -0.540053    0.043773
C      -1.442994   -2.088870   -0.030281
C      -0.816289   -2.686288    1.235193
O       0.269051   -3.199104    1.273528
C      -2.815617   -2.564695   -0.151689
C      -3.947912   -2.964858   -0.202523
H       0.844812    1.774307    0.011468
H       0.504846   -0.324113   -0.988425
H       0.658344   -0.406650    0.773938
H      -1.845280   -0.195217    0.974292
H      -1.973088   -0.125172   -0.776365
H      -0.842495   -2.438818   -0.878414
H      -1.453516   -2.583243    2.141310
H      -4.946678   -3.319895   -0.269657
