17

C      -0.061275    1.272862   -0.298112
O      -0.103376    0.039761    0.426073
C      -1.232043   -0.670552    0.317717
C      -1.420413   -2.017114    0.251470
C      -0.366249   -3.068141    0.189853
O      -0.580628   -3.865478   -0.974922
C      -2.850750   -2.192131    0.247969
C      -3.399158   -0.956749    0.302887
O      -2.412090   -0.001630    0.357271
H       0.939878    1.676948   -0.143656
H      -0.231540    1.101998   -1.367235
H      -0.806720    1.977788    0.080592
H       0.620939   -2.583275    0.173383
H      -0.405044   -3.699152    1.092918
H       0.035960   -4.603551   -0.938826
H      -3.380007   -3.130025    0.186232
H      -4.406931   -0.578473    0.295329
