16

C      -0.017207    1.561589    0.029806
C       0.054430    0.057822    0.033840
C       0.953179   -0.809881   -0.927444
C       0.576023   -1.898691    0.097945
C       0.661571   -0.818075    1.195269
O      -0.866302   -2.027846   -0.100679
C      -1.254417   -0.710615   -0.148940
O      -2.378579   -0.338185   -0.301860
H       0.972653    2.006496    0.167616
H      -0.430775    1.925459   -0.915811
H      -0.671002    1.918700    0.831463
H       0.622680   -0.954346   -1.958467
H       2.004367   -0.516724   -0.887359
H       1.021686   -2.888227    0.155349
H       1.684323   -0.525718    1.442351
H       0.065443   -0.970005    2.097853
