16

O       0.043660    1.398460    0.128340
C       0.021195    0.011253    0.000207
C      -1.426444   -0.516175   -0.057237
N      -1.441386   -1.951776   -0.289745
C      -0.573845   -2.663394   -1.071474
O      -0.752010   -3.829479   -1.353740
C       0.686635   -1.921357   -1.544536
C       0.708189   -0.437193   -1.280892
O       1.185539    0.384996   -2.031911
H       0.507554    1.720301   -0.662942
H       0.526874   -0.474013    0.851260
H      -1.919798   -0.303590    0.894456
H      -1.963001    0.038796   -0.839432
H      -2.261492   -2.474262   -0.016592
H       1.526651   -2.381528   -1.007424
H       0.845510   -2.123414   -2.605709
