17

C       0.388027    0.519425   -0.963258
C       0.076743    0.072591    0.464408
O       0.334526    1.100976    1.416555
C      -1.335408   -0.417440    0.638322
C      -1.946783   -1.136205    1.854331
C      -2.909789   -1.822700    0.839090
O      -3.684679   -2.727301    0.911414
C      -2.301463   -1.030097   -0.317803
O      -2.406815    0.354267    0.085748
H       1.395798    0.939326   -0.998986
H       0.336388   -0.321083   -1.662128
H      -0.325988    1.280608   -1.292097
H       0.751419   -0.742581    0.751517
H      -0.241563    1.843954    1.200715
H      -1.298525   -1.879286    2.328621
H      -2.386339   -0.485112    2.611232
H      -2.242804   -1.239623   -1.379396
