15

N       0.598891    0.328271   -0.839266
C      -0.013694    0.021808    0.338711
O       0.251747    0.566585    1.393982
C      -1.099524   -1.046433    0.236589
C      -2.328469   -0.821375   -0.731903
C      -1.967999   -2.140579   -1.423838
O      -0.627408   -2.011266   -1.925572
C      -0.809546   -2.349101   -0.540949
H       1.372978    0.971411   -0.812544
H       0.436023   -0.240209   -1.656772
H      -1.436238   -1.253822    1.252362
H      -3.278398   -0.853907   -0.195233
H      -2.296291    0.063055   -1.371140
H      -2.607970   -2.850639   -1.933366
H      -0.324419   -3.252494   -0.191096
