17

C      -0.001349    1.520252    0.055536
C       1.318919    0.794318   -0.022316
C       0.019181    0.012519    0.005902
C       0.081730   -0.629086   -1.365115
C       0.643270    0.359092   -2.423789
C       1.354384   -0.845493   -3.043343
N       1.552829   -1.121683   -1.554781
C       1.812533    0.412003   -1.402691
H      -0.248618    1.965918    1.013561
H      -0.360216    2.086080   -0.797462
H       2.007206    0.812874    0.813238
H      -0.292779   -0.570585    0.863168
H      -0.679276   -1.359518   -1.645654
H       0.132011    1.191036   -2.922875
H       0.745014   -1.597981   -3.552461
H       2.287931   -0.669909   -3.585957
H       2.804872    0.736218   -1.721295
