17

O      -0.059553    1.343961    0.066888
C       0.007086   -0.035297    0.006520
C      -0.256053   -0.919986   -1.178623
C       0.879454   -1.930035   -1.251276
O       1.769255   -1.605971   -0.175688
C       1.057576   -0.857186    0.787914
O       0.339774   -1.684548    1.679334
C      -0.960173   -1.952105    1.142247
C      -1.185569   -0.924004    0.045266
H       0.673036    1.706351   -0.444008
H      -0.671667   -0.517215   -2.094850
H       0.533368   -2.968604   -1.154972
H       1.435545   -1.845546   -2.190943
H       1.780128   -0.282167    1.368131
H      -1.010085   -2.986263    0.774348
H      -1.695005   -1.842723    1.947440
H      -2.178441   -0.517107   -0.105193
