21

C       0.008064    1.487412    0.028769
C       0.092682   -0.018985   -0.136320
O       1.150204   -0.576558   -0.355418
C      -1.196743   -0.760316   -0.012866
C      -1.316010   -2.127973   -0.662575
C      -1.286001   -2.044745    0.827773
C      -0.125537   -2.579086    1.639164
C      -0.241962   -4.088723    1.877382
O       0.797877   -4.590968    2.700415
H       1.001909    1.928363   -0.053306
H      -0.649409    1.914441   -0.737540
H      -0.432934    1.739456    1.000020
H      -2.084838   -0.137383    0.005129
H      -2.244856   -2.365541   -1.168519
H      -0.412865   -2.470394   -1.157302
H      -2.251762   -2.149459    1.317761
H       0.813959   -2.362992    1.120910
H      -0.080998   -2.077891    2.613831
H      -1.173365   -4.320010    2.407019
H      -0.282231   -4.616111    0.910950
H       1.632249   -4.422346    2.250707
