25

C       0.335513    1.244043   -0.263553
O       0.137439   -0.113108    0.055176
C      -1.221968   -0.546214    0.044907
C      -1.775351   -0.645772   -1.381820
C      -1.299800   -1.891766    0.767111
C      -0.190275   -2.920644    0.383775
C       0.509628   -2.644344    1.741009
C      -0.788202   -1.956987    2.248427
C      -0.680464   -0.697033    3.095720
H       1.394027    1.461590   -0.098528
H       0.095027    1.474732   -1.311183
H      -0.265285    1.905065    0.381010
H      -1.826457    0.188608    0.605447
H      -1.215686   -1.386528   -1.961265
H      -2.827099   -0.947442   -1.360188
H      -1.719069    0.311998   -1.906427
H      -2.324902   -2.255955    0.642606
H      -0.581981   -3.938410    0.306525
H       0.389827   -2.699334   -0.514087
H       0.870823   -3.507111    2.307416
H       1.324382   -1.925388    1.628732
H      -1.401117   -2.692730    2.782777
H      -0.061848    0.057679    2.603345
H      -1.665228   -0.257476    3.294292
H      -0.225019   -0.925378    4.066261
