23

C       0.204795    1.535266   -0.153180
C       0.124340    0.022642    0.032963
C       0.712383   -0.468894    1.350033
O       1.090521    0.302127    2.204102
C       0.829579   -1.981550    1.512776
C       2.147278   -2.499047    0.856246
C       2.489880   -3.756261    1.667277
C       2.166047   -3.337178    3.109867
C       0.893706   -2.462631    2.989145
H       1.244284    1.874235   -0.153001
H      -0.256011    1.835670   -1.098459
H      -0.303738    2.053906    0.663038
H      -0.918946   -0.324151   -0.000649
H       0.622678   -0.511443   -0.787471
H      -0.013759   -2.449653    0.992635
H       2.040653   -2.684175   -0.216170
H       2.940249   -1.752250    0.986587
H       1.842468   -4.586414    1.357214
H       3.526105   -4.080321    1.531428
H       2.031291   -4.188082    3.783232
H       2.993353   -2.739278    3.508702
H       0.926886   -1.604463    3.662859
H      -0.003211   -3.040124    3.231390
