19

C       0.025977   -0.771659    1.308452
C       0.075143   -0.012360   -0.003468
O       0.078660    1.210406   -0.020416
C       0.114602   -0.763948   -1.271918
C       0.099405   -2.091734   -1.448918
C       0.181831   -2.472252   -2.903880
C      -0.072535   -1.131753   -3.636129
C       0.229383   -0.027645   -2.602547
O      -0.682903    1.040836   -2.751002
H      -0.854255   -1.422020    1.343469
H       0.907798   -1.411317    1.419098
H      -0.014216   -0.059551    2.133207
H       0.059690   -2.831068   -0.655222
H       1.177365   -2.881536   -3.127753
H      -0.533321   -3.257205   -3.174021
H       0.508065   -1.027108   -4.554645
H      -1.131484   -1.039457   -3.894605
H       1.264246    0.341359   -2.713220
H      -0.537563    1.610218   -1.982091
