17

C      -0.066222    1.535622   -0.010892
C       0.001881   -0.004877    0.002721
C       0.805327   -0.588547   -1.208900
C       1.624852   -1.774421   -0.647258
C       1.645995   -1.501662    0.836422
C       0.774530   -0.563595    1.194436
C      -1.371800   -0.540658    0.021954
N      -2.449869   -0.959069    0.039495
H       0.947845    1.944060    0.018396
H      -0.564407    1.896233   -0.915374
H      -0.618382    1.913495    0.854073
H       0.155010   -0.865624   -2.040378
H       1.482681    0.193512   -1.564521
H       1.144040   -2.740047   -0.852600
H       2.626863   -1.829014   -1.085943
H       2.284197   -2.046856    1.522953
H       0.570652   -0.224789    2.203354
