13

O      -0.101207   -0.008178    0.000575
C      -0.040904    1.190764    0.008521
N       1.169019    1.897281    0.000201
C       2.439505    1.347578   -0.018333
C       3.296525    2.407731   -0.020037
N       2.610112    3.604649   -0.003200
C       1.336988    3.284914    0.008873
C       0.244850    4.180812    0.027997
C      -0.691808    4.936698    0.044504
H      -0.909086    1.867379    0.023947
H       2.573779    0.279994   -0.027950
H       4.375342    2.388402   -0.032438
H      -1.509941    5.614438    0.059664
