16

O       0.066885    1.353964    0.285024
C       0.105844   -0.039216    0.046018
C      -1.297839   -0.613927   -0.060481
C      -1.592924   -2.116610   -0.026618
C      -2.768792   -1.847097    0.829386
C      -1.569671   -2.524498    1.478613
C      -1.346169   -1.237701    2.187886
O      -0.846090   -0.854189    3.197504
N      -2.169402   -0.479353    1.198418
H      -0.410938    1.489418    1.111826
H       0.623795   -0.180537   -0.909139
H       0.688766   -0.569122    0.814361
H      -1.835771   -0.127293   -0.878779
H      -1.469971   -2.875091   -0.790947
H      -3.817395   -2.099402    0.842116
H      -1.438496   -3.549679    1.795894
