19

C       0.055485    1.443349    0.123311
C      -0.007313   -0.037677   -0.066108
C       0.576740   -0.944415   -1.178604
C       0.048366   -1.844403   -0.033276
C       0.202010   -3.310897    0.209722
O       0.664382   -0.903303    0.934802
C      -1.258748   -0.979471    0.004939
C      -2.055872   -0.982150    1.209550
C      -2.752285   -0.985795    2.190153
H       1.096064    1.779964    0.153587
H      -0.452282    1.954345   -0.700598
H      -0.431897    1.724032    1.061562
H       0.070261   -0.977630   -2.147360
H       1.663567   -0.912462   -1.263448
H       1.261306   -3.581474    0.251104
H      -0.268275   -3.586814    1.158058
H      -0.272350   -3.881765   -0.594556
H      -1.875271   -1.014900   -0.899082
H      -3.354645   -0.988451    3.064511
