14

O       0.527874    0.924093    0.685148
C      -0.043517   -0.179228    0.037057
C      -1.586154   -0.145549   -0.197849
C      -1.346593   -0.553705   -1.663487
C      -1.944565   -1.639337   -2.459608
O      -2.158979   -0.266105   -2.777223
C       0.126323   -0.217511   -1.500546
O       1.027545    0.109433   -2.217474
H       1.302237    1.185845    0.171627
H       0.269059   -1.129856    0.495819
H      -2.192560   -0.814915    0.412370
H      -1.960685    0.877977   -0.122701
H      -1.328509   -2.193033   -3.165938
H      -2.804412   -2.169475   -2.052438
