21

C       0.127907    1.569903    0.111570
C       0.041999    0.044361    0.097926
O       0.715447   -0.514866    1.220920
C      -1.414414   -0.475352    0.021718
C      -2.154797    0.121586   -1.155141
O      -3.270977    0.577388   -1.110772
C      -1.428039   -2.029759   -0.077399
C      -2.811720   -2.630154    0.152258
O      -0.858467   -2.465948   -1.312251
H       1.170780    1.884700    0.202651
H      -0.285590    2.008229   -0.802825
H      -0.434672    1.985311    0.957435
H       0.581843   -0.350315   -0.769779
H       0.358596   -0.098930    2.014079
H      -1.954982   -0.179260    0.930025
H      -1.594816    0.090942   -2.118010
H      -0.737969   -2.385483    0.693467
H      -3.540692   -2.250318   -0.573515
H      -2.763569   -3.719131    0.062119
H      -3.186901   -2.382843    1.149951
H      -1.559459   -2.507689   -1.971056
