16

O      -0.295529    1.374170    0.559427
C      -0.041001    0.117290   -0.042774
C       0.688528   -0.867253    0.893693
O      -0.309135   -1.385377    1.769156
C      -1.484334   -1.529722    1.016007
C      -1.412274   -0.550338   -0.202359
N      -1.458027   -1.726209   -1.068898
C      -1.496167   -2.672307   -0.065580
O      -1.517398   -3.871062   -0.075475
H       0.536027    1.735468    0.881173
H       0.486316    0.224381   -1.001893
H       1.156939   -1.671433    0.307166
H       1.459877   -0.390945    1.505922
H      -2.350119   -1.500521    1.677417
H      -2.212213    0.177342   -0.346440
H      -1.443916   -1.819450   -2.074243
