20

C      -0.027288    1.506586   -0.227012
C       1.500134    1.424492    0.163154
C       1.054866    0.124569    0.859234
C       0.990625   -1.411590    1.145843
C       1.418089   -1.730276    2.569694
C       0.814368   -0.503429    3.317321
C       0.146973    0.228917    2.156845
C      -0.485758   -0.781925    1.179461
N      -0.104836   -0.002967   -0.068123
H      -0.608950    2.116232    0.472205
H      -0.264148    1.809653   -1.248774
H       2.131886    1.257293   -0.712230
H       1.917219    2.218195    0.786613
H       1.229217   -2.088616    0.326827
H       1.002376   -2.680836    2.918530
H       2.505959   -1.795124    2.667921
H       0.095013   -0.797831    4.088747
H       1.578736    0.111046    3.804429
H      -0.373468    1.159824    2.376852
H      -1.420936   -1.342091    1.280087
