13

N      -0.074896    1.364928    0.010935
C      -0.024879    0.087172    0.003594
N       1.162011   -0.678844   -0.007964
N       1.292948   -2.000886   -0.016044
C       0.189836   -2.702759   -0.013075
C      -1.118477   -2.091336   -0.001609
C      -1.215942   -0.747156    0.006386
C       0.326402   -4.127229   -0.021752
N       0.378423   -5.283289   -0.028430
H       0.852449    1.792194    0.007545
H       2.045675   -0.187528   -0.010732
H      -1.994703   -2.728529    0.000315
H      -2.166131   -0.228282    0.015125
