19

C      -0.176961    1.501454    0.244601
C       0.024992    0.022010   -0.121430
O       0.950323   -0.493968    0.832191
C      -1.262071   -0.689059   -0.023814
C      -2.305710   -1.280364    0.052531
C       0.577637   -0.149381   -1.582764
O      -0.080693    0.691836   -2.509036
C       2.102224    0.003198   -1.670697
O       2.679518   -1.209965   -1.180241
H       0.749885    2.065406    0.093282
H      -0.986009    1.949194   -0.336521
H      -0.437259    1.565701    1.302969
H       1.497746   -1.161195    0.393198
H      -3.225686   -1.805877    0.125081
H       0.351596   -1.169694   -1.908568
H       0.077589    1.607020   -2.254325
H       2.361265    0.160598   -2.725765
H       2.451237    0.868470   -1.090124
H       3.614592   -1.061147   -1.011074
