20

C       0.347885    1.341479    0.042540
N       0.067362   -0.074913    0.031629
C      -1.184106   -0.577373    0.063375
O      -2.207640    0.091595    0.103105
C      -1.192195   -2.106244    0.044032
N      -2.399981   -2.735611    0.071733
C      -3.745496   -2.173248    0.116451
N      -0.045559   -2.690779    0.003121
C      -0.006033   -4.136820   -0.016558
H       0.890371    1.647668   -0.859430
H      -0.606105    1.869900    0.079469
H       0.945574    1.622956    0.917248
H       0.799274   -0.773683    0.001184
H      -2.350709   -3.739338    0.057536
H      -4.445772   -3.012973    0.124768
H      -3.905057   -1.566995    1.010005
H      -3.953810   -1.543656   -0.750497
H      -0.468149   -4.584183    0.880027
H      -0.521690   -4.561682   -0.894742
H       1.032333   -4.475196   -0.052216
