18

C      -0.148195   -1.271546   -0.151412
C      -0.003713   -0.089822    0.028132
C       0.025090    1.343638    0.115093
C       0.388341    2.235752    1.265948
C       1.435628    1.880237    2.326315
C       2.595689    2.807020    1.799767
C       2.514428    1.806682    0.603707
C       2.241865    0.723263    1.682906
N       1.204437    2.253980    0.020902
H      -0.246714   -2.320763   -0.282151
H      -0.773260    1.767715   -0.494965
H      -0.251151    3.095780    1.454509
H       1.115488    1.868382    3.367274
H       2.359824    3.851415    1.582548
H       3.514398    2.722350    2.383437
H       3.290682    1.711622   -0.153606
H       3.148474    0.512143    2.253314
H       1.744970   -0.204081    1.419378
