19

O       0.014790    1.391605    0.169220
C      -0.017770   -0.013900    0.008287
C      -1.433681   -0.482414   -0.073486
C      -2.534187    0.265475   -0.025365
C      -3.795072   -0.559387   -0.090594
C      -3.284867   -1.977632   -0.492728
C      -1.759583   -1.957269   -0.178274
C      -4.006916   -3.074521    0.249793
O      -4.652547   -3.956690   -0.253683
H       0.934549    1.669908    0.190065
H       0.519553   -0.327791   -0.904854
H       0.484741   -0.528515    0.847605
H      -2.538214    1.341963    0.087351
H      -4.304805   -0.571721    0.885120
H      -4.528879   -0.181662   -0.810443
H      -3.442359   -2.139501   -1.561458
H      -1.183729   -2.478092   -0.951835
H      -1.531809   -2.471021    0.768802
H      -3.897137   -3.005789    1.360351
