15

C      -0.041637    1.510099    0.013028
C       0.010264    0.004184    0.019869
N       0.143566   -0.600834   -1.168074
C       0.194479   -1.930460   -1.215711
C       0.116545   -2.746967   -0.088605
O       0.174180   -4.098493   -0.199348
C      -0.021630   -2.100940    1.135756
F      -0.099067   -2.864986    2.238155
C      -0.076802   -0.723623    1.210850
H       0.870246    1.921713   -0.431109
H      -0.880275    1.860621   -0.596914
H      -0.151324    1.916391    1.021475
H       0.302927   -2.396553   -2.191833
H       0.103766   -4.475990    0.685816
H      -0.184661   -0.239066    2.173859
