27

C       2.912024    1.696519   -0.247636
C       1.989932    0.472998   -0.263778
C       2.542921   -0.746339   -1.031279
C       3.825688   -1.296288   -0.388002
C       1.480107   -1.831221   -1.122852
C       0.282125   -1.681859   -2.029856
C       1.293800   -2.768577   -2.303004
C       2.133117   -2.744790   -3.566626
C       3.302189   -3.736810   -3.546895
H       3.849217    1.500257    0.282029
H       3.166936    2.012749   -1.265895
H       2.427862    2.543312    0.249279
H       1.764021    0.170054    0.768258
H       1.029795    0.754736   -0.711917
H       2.786384   -0.407608   -2.047858
H       4.190813   -2.177393   -0.922954
H       4.630146   -0.555248   -0.380368
H       3.638712   -1.594945    0.650908
H       1.266731   -2.286033   -0.156190
H      -0.702793   -1.949663   -1.662366
H       0.281831   -0.833673   -2.709695
H       0.975189   -3.772779   -2.028346
H       1.482216   -2.980029   -4.419532
H       2.508470   -1.731866   -3.752028
H       3.855860   -3.715021   -4.491030
H       4.007258   -3.513736   -2.740256
H       2.943850   -4.761263   -3.396028
