23

C       0.360907    1.687314    0.133711
C       0.098301    0.191924    0.022737
C       0.665783   -0.626839   -1.201700
C       1.500052    0.087782   -2.258245
C       1.370999   -1.619653   -0.210698
C       1.100155   -3.096796   -0.386620
C       2.774008   -1.181387    0.248421
O       2.227215   -0.284087    1.241458
C       0.880734   -0.737346    0.978918
H       1.432170    1.899052    0.160228
H      -0.083382    2.233123   -0.705250
H      -0.074676    2.086293    1.056500
H      -0.976193    0.001129    0.123779
H      -0.150092   -1.151780   -1.709855
H       2.298759    0.695371   -1.823817
H       1.962775   -0.631445   -2.943743
H       0.873761    0.756177   -2.858829
H       1.574573   -3.477517   -1.299950
H       1.487740   -3.680358    0.455718
H       0.026467   -3.298303   -0.468987
H       3.351201   -1.989375    0.720155
H       3.418902   -0.666393   -0.472704
H       0.388289   -1.107365    1.884354
