16

C      -0.007546    1.495347    0.039063
C       0.006631   -0.010185   -0.019893
C      -0.088782   -0.696133   -1.226257
C      -0.078391   -2.095007   -1.208842
C       0.037096   -2.726560    0.003700
F       0.045462   -4.069091    0.101157
C       0.137773   -1.973516    1.187003
N       0.308348   -2.606330    2.399122
N       0.112753   -0.644034    1.160741
H       0.916066    1.869671    0.492651
H      -0.110659    1.936641   -0.955105
H      -0.834512    1.846545    0.664782
H      -0.176963   -0.158742   -2.162652
H      -0.158293   -2.683557   -2.115907
H      -0.009202   -3.560923    2.453591
H       0.094078   -2.031006    3.199269
