19

N      -0.294978   -1.212743    0.394434
C      -0.191633   -0.067750    0.263719
C      -0.073394    1.356564    0.062071
C       0.530821    2.196858    1.148428
N       1.243717    1.993534   -0.098807
C       2.427248    1.145669   -0.063222
C       2.923450    0.591225   -1.421211
C       4.373817    0.918337   -0.968873
C       3.780581    1.882918    0.095712
H      -0.856698    1.775261   -0.563222
H       0.135076    3.193126    1.322714
H       0.878618    1.669977    2.035203
H       2.333732    0.336166    0.676283
H       2.673803   -0.442788   -1.665932
H       2.598638    1.244144   -2.236006
H       4.863498    0.055056   -0.510777
H       5.048389    1.346102   -1.712553
H       3.700015    2.904331   -0.285844
H       4.235053    1.905399    1.088738
