18

C      -0.110857    1.540750    0.055467
C       0.112437    0.062030    0.033624
N      -0.783524   -0.895857    0.722919
C       0.674878   -0.905047    1.014916
C       1.301390   -1.769879   -0.072855
C       0.677127   -0.768679   -1.156662
N      -0.340287   -1.197981   -2.091931
C       1.741556   -0.055204   -1.865354
N       2.599847    0.502481   -2.402527
H       0.774637    2.074428   -0.302185
H      -0.953318    1.816238   -0.588113
H      -0.329741    1.884708    1.071848
H      -1.250905   -0.379058    1.467030
H       1.040909   -0.729925    2.018640
H       2.392290   -1.762562   -0.075421
H       0.926770   -2.794229   -0.137884
H       0.030527   -1.874535   -2.751522
H      -1.078645   -1.644554   -1.555074
