16

C       0.003211    1.378390   -0.295860
C       1.456212    1.547836    0.188538
C       1.282184    0.127278    0.748754
C       2.224908   -1.090836    0.468189
C       2.307482   -1.311982    1.983296
O       2.800998   -0.090799    2.553365
C       1.402420   -0.184769    2.252561
O      -0.039635    0.016678    0.193600
H      -0.740253    2.011199    0.203339
H      -0.158878    1.424272   -1.378316
H       2.198493    1.631803   -0.606853
H       1.637373    2.325200    0.932221
H       1.663538   -1.869302   -0.054865
H       3.172740   -0.896777   -0.040196
H       2.480526   -2.224419    2.541163
H       0.689882   -0.000855    3.048930
