21

C      -0.263085    1.622188    0.028608
C      -0.038026    0.100609   -0.008297
C      -1.389034   -0.631188   -0.078713
O      -2.123657   -0.363462   -1.262557
C       0.874208   -0.292757   -1.215478
C       2.265554   -0.442235   -0.640701
O       2.692484    0.678081    0.152144
C       2.191088   -0.487371    0.823631
C       0.746592   -0.367803    1.259531
H       0.690830    2.146554    0.109193
H      -0.757355    1.971907   -0.885419
H      -0.886548    1.907300    0.884830
H      -1.219152   -1.713977   -0.080552
H      -1.982257   -0.395248    0.820168
H      -2.430897    0.547099   -1.222950
H       0.560437   -1.249551   -1.649282
H       0.832990    0.447772   -2.019653
H       3.054253   -0.930507   -1.208385
H       2.916043   -1.013256    1.440639
H       0.620619    0.324313    2.098496
H       0.398902   -1.352835    1.598783
