23

C      -0.075878    1.405826    0.046531
O      -0.040988   -0.000235    0.086103
C      -1.315378   -0.636630    0.050950
C      -1.896743   -0.639095   -1.365020
C      -1.096196   -2.055695    0.612575
C      -0.621071   -2.052908    2.093465
C      -1.850915   -2.466876    2.944763
C      -2.783225   -3.075789    1.925596
C      -2.371731   -2.869451    0.675851
H       0.950855    1.756922    0.180354
H      -0.452110    1.798379   -0.909780
H      -0.698906    1.820986    0.854811
H      -2.004711   -0.096708    0.723544
H      -2.896027   -1.083215   -1.375241
H      -1.985673    0.376613   -1.760596
H      -1.252246   -1.212136   -2.039899
H      -0.346970   -2.525781   -0.037807
H       0.175075   -2.792181    2.219059
H      -0.202977   -1.085582    2.377711
H      -1.585350   -3.169548    3.743171
H      -2.323851   -1.609653    3.444335
H      -3.689022   -3.604709    2.203269
H      -2.890682   -3.212888   -0.212173
