16

C      -0.052545    1.597496    0.087672
C       1.432710    1.218997    0.055276
O       1.114294    0.042584    0.943867
C       0.096660    0.067345   -0.131692
C      -0.884695   -0.874611   -0.769982
O      -0.801582   -0.464579   -2.152123
C       0.358155    0.384075   -2.429523
C       1.199666    0.277032   -1.170360
H      -0.432746    1.881528    1.068584
H      -0.458821    2.208179   -0.719819
H       2.316828    1.792516    0.333602
H      -0.580270   -1.922980   -0.649442
H      -1.922656   -0.756787   -0.445102
H       0.857799   -0.021438   -3.313724
H       0.007696    1.394843   -2.664664
H       1.914034   -0.547779   -1.192014
