16

O       0.080173    0.051886    0.113010
C      -0.082259    1.253551    0.045016
C      -1.176288    2.131840   -0.088609
C      -2.640350    2.073857   -0.058082
N      -2.942235    3.485765    0.552394
H      -3.887857    3.826138    0.362586
H      -2.807332    3.414192    1.560867
C      -1.848259    4.422074   -0.007462
C      -0.700449    3.482684   -0.066262
C       0.644962    3.448230    0.052639
O       1.062841    2.145722    0.080138
H      -3.188498    2.097323   -1.018263
H      -3.102859    1.312452    0.578642
H      -2.228348    4.759696   -0.980040
H      -1.760335    5.285465    0.656987
H       1.405711    4.207800    0.132169
