20

C      -0.533426    1.314524    0.214926
C      -0.041593   -0.100681   -0.082642
N       0.906426   -0.132606   -1.238401
C       2.428002   -0.059966   -1.025200
C       3.080070   -0.408399    0.370443
C       1.853622   -1.343440    0.489959
C       1.682429   -1.334341   -1.046784
C       0.784936   -0.726915    1.053658
C       0.728741   -0.266011    2.474098
H       0.290720    1.967650    0.518216
H      -0.978653    1.734847   -0.690506
H      -1.289025    1.318447    1.006005
H      -0.900776   -0.705964   -0.407403
H       2.947558    0.425225   -1.845234
H       4.049800   -0.883716    0.181062
H       3.192359    0.366395    1.134351
H       1.692345   -2.164076   -1.744394
H       0.554370    0.811419    2.568858
H      -0.097117   -0.758932    3.005704
H       1.649745   -0.526743    3.003540
