17

N      -0.022275    1.345926    0.102774
C       0.052584   -0.025685    0.046079
O       1.121129   -0.613234    0.061576
C      -1.252437   -0.725763    0.005354
C      -1.363949   -2.061282   -0.034556
N      -2.695142   -2.555163   -0.081562
C      -3.411755   -2.295408    1.196764
C      -3.535892   -1.335810    0.072102
C      -2.639097   -0.098727    0.022874
H       0.847017    1.845424    0.001522
H      -0.867993    1.833127   -0.139087
H      -0.543673   -2.766927   -0.039479
H      -4.226693   -2.981171    1.406929
H      -2.801677   -2.017020    2.051666
H      -4.455287   -1.332997   -0.503965
H      -2.790434    0.576111    0.874784
H      -2.844448    0.483312   -0.885957
