20

C      -0.035117    1.543385    0.028545
C       0.044074    0.035375    0.005839
C      -0.803809   -0.802339    0.945192
C       0.704496   -0.796300    1.094448
C       1.479577   -1.894271    0.404576
C       2.789237   -2.376816    0.924550
N       1.611221   -3.257222    0.968206
C       1.166309   -1.746788   -1.047667
C       0.402552   -0.674119   -1.267866
H       0.902141    1.997422   -0.311991
H      -0.837248    1.905836   -0.625325
H      -0.241224    1.913540    1.037669
H      -1.365190   -0.275285    1.711019
H      -1.288525   -1.690461    0.553861
H       1.131238   -0.324063    1.972952
H       3.569331   -2.688820    0.234828
H       3.154546   -1.936707    1.850192
H       1.220358   -3.267257    1.907789
H       1.505359   -2.464536   -1.784598
H       0.038359   -0.343223   -2.234616
