21

O      -0.026371   -0.056181   -0.474043
C      -0.028233    1.110539   -0.144397
C      -1.337308    1.890479   -0.038831
C      -1.735563    2.533687    1.310530
C      -0.863314    3.714118    1.795275
C       0.181759    3.360655    2.866298
C       1.059560    2.140376    2.519892
C       1.766595    2.269785    1.197516
C       1.278394    1.838162    0.036110
H      -1.284375    2.690772   -0.791879
H      -2.120858    1.194756   -0.353771
H      -2.763031    2.887700    1.174765
H      -1.794742    1.758591    2.084469
H      -0.364402    4.171011    0.933419
H      -1.513818    4.491472    2.211431
H       0.817974    4.236737    3.043235
H      -0.325974    3.151841    3.816447
H       1.794782    1.992950    3.318679
H       0.435886    1.239687    2.513656
H       2.740407    2.755919    1.206005
H       1.863807    1.929943   -0.876291
