16

C       0.096530    1.309779    0.152175
O       0.037679   -0.100061    0.015233
C       0.609049   -0.574225   -1.152220
O       2.016860   -0.338876   -1.159675
C       2.715254   -1.449909   -1.709339
C       1.760183   -2.620811   -1.621325
O       1.225695   -2.791340   -0.307303
C       0.448605   -2.077218   -1.269649
H       1.130208    1.659196    0.249940
H      -0.369424    1.813144   -0.708802
H      -0.460279    1.562886    1.056547
H       0.153939   -0.072220   -2.029010
H       2.989610   -1.269285   -2.760458
H       3.632783   -1.599824   -1.130208
H       1.907770   -3.520144   -2.212420
H      -0.503681   -2.512792   -1.555761
