17

C      -0.132965    1.572093    0.063687
C      -0.063801    0.044767    0.014153
C       0.826518   -0.538993    1.129265
C       0.892027   -2.028214    1.111825
C       1.887069   -2.925812    0.867428
C       1.244115   -4.184234    1.002968
N      -0.025321   -4.064656    1.301413
O      -0.252141   -2.690433    1.371964
H       0.859988    2.020373   -0.053748
H      -0.770999    1.963217   -0.734279
H      -0.542425    1.919829    1.018529
H      -1.068541   -0.381213    0.106403
H       0.323145   -0.282748   -0.958037
H       1.845850   -0.149456    1.038575
H       0.445663   -0.208525    2.104164
H       2.917542   -2.720871    0.630394
H       1.664028   -5.174520    0.894132
