19

C       0.113905    1.567313   -0.032061
C       0.061702    0.057368   -0.063971
O       0.776078   -0.394734   -1.191648
C       0.758581   -1.810629   -1.277035
C       1.408438   -2.418240   -0.032213
C       0.750911   -1.818006    1.230290
O       0.647147   -0.416070    1.144576
C      -0.568316   -2.512398    1.555821
O      -1.644944   -1.981561    1.619529
H       1.153924    1.896962    0.030188
H      -0.336229    1.972968   -0.940820
H      -0.432273    1.938400    0.837657
H      -0.973037   -0.312962   -0.121832
H      -0.278728   -2.169518   -1.387539
H       1.307624   -2.080849   -2.182590
H       1.322411   -3.510735   -0.037907
H       2.471876   -2.163149   -0.021398
H       1.398792   -2.023333    2.095287
H      -0.445449   -3.605089    1.753869
