22

C      -0.045858    1.503240    0.191027
C       0.048369   -0.012252   -0.048672
C       0.726798   -0.307196   -1.376937
C       0.411350   -1.552571   -2.163584
C      -0.035453   -0.202899   -2.673716
C       0.764708   -0.697271    1.104218
C       0.041959   -0.999394    2.392586
C       0.467018   -2.125383    1.479923
H       0.954169    1.949808    0.245956
H      -0.585634    1.998998   -0.621669
H      -0.558837    1.723241    1.132334
H      -0.974060   -0.416354   -0.096581
H       1.763466    0.022950   -1.416862
H       1.219051   -2.058972   -2.680593
H      -0.350053   -2.220483   -1.774849
H      -1.094618    0.029631   -2.620492
H       0.464903    0.214777   -3.540480
H       1.803643   -0.390438    1.212570
H       0.569891   -0.865419    3.330365
H      -1.017220   -0.766714    2.444871
H      -0.308761   -2.645397    0.927919
H       1.287392   -2.762181    1.792328
