16

C       0.008444    1.534972   -0.004045
C      -0.001338    0.005268   -0.045318
C      -1.424782   -0.551723    0.048503
N      -1.453668   -2.007489    0.002934
N      -1.203042   -2.708483   -1.096222
C      -1.304490   -3.950981   -0.639245
N      -1.601240   -4.002132    0.677642
N      -1.691445   -2.755291    1.073469
H       1.030118    1.918015   -0.072650
H      -0.563067    1.960141   -0.836214
H      -0.427095    1.912565    0.927362
H       0.454982   -0.354833   -0.973181
H       0.591001   -0.401885    0.781797
H      -1.899893   -0.274938    0.991959
H      -2.042343   -0.184898   -0.776271
H      -1.168356   -4.822171   -1.259118
