18

C       0.082403    1.496418    0.008753
C       0.063663   -0.001971   -0.082727
C       0.552669   -0.943354   -1.205501
C       0.002154   -1.913965   -0.144858
C       0.485536   -1.014826    1.038642
N      -0.838671   -0.902682    1.730052
C      -1.170057   -0.937131    0.277535
C      -2.543688   -0.915110   -0.275706
O      -3.547190   -0.951640    0.392863
H       1.109963    1.873712   -0.036256
H      -0.477019    1.954265   -0.813766
H      -0.363650    1.818848    0.954135
H       0.024598   -0.893225   -2.162123
H       1.634023   -0.970746   -1.372928
H      -0.059884   -3.003469   -0.157886
H       1.436986   -1.056923    1.571409
H      -1.098064   -1.786159    2.175965
H      -2.586672   -0.878939   -1.388771
