16

C       0.036379    1.446823   -0.010342
C      -0.063575   -0.044804    0.009837
N      -1.191492   -0.651798   -0.037467
C      -1.154518   -2.044173   -0.015087
N      -2.399686   -2.609178   -0.018434
C       0.013039   -2.743534    0.042191
C       1.263103   -2.049791    0.098794
N       2.418334   -2.570643    0.158458
O       1.142392   -0.632723    0.081258
H       0.636387    1.772479   -0.865989
H      -0.960452    1.881182   -0.069755
H       0.543036    1.801213    0.892928
H      -3.148674   -2.007224   -0.320276
H      -2.484092   -3.583102   -0.257364
H       0.046173   -3.824513    0.054399
H       3.139962   -1.851833    0.187206
