21

C      -0.095362    1.463914   -0.150473
C      -0.348001   -0.041200   -0.164045
O       0.806775   -0.776954    0.243100
C      -1.553790   -0.437183    0.709336
N      -1.753825   -1.875203    0.847261
C      -2.743424   -2.503754   -0.018885
C      -2.419232   -2.584881   -1.528436
C      -3.010604   -3.861107    0.495357
N      -3.210556   -4.935583    0.869786
H       0.784656    1.708225   -0.750977
H      -0.953265    2.012736   -0.552759
H       0.076888    1.821280    0.872656
H      -0.521518   -0.370933   -1.194197
H       1.080804   -0.442028    1.105288
H      -1.394443   -0.005805    1.710644
H      -2.467943    0.025758    0.319233
H      -0.856445   -2.346197    0.785485
H      -3.678423   -1.940364    0.101052
H      -1.474774   -3.112071   -1.690139
H      -3.208774   -3.117359   -2.067236
H      -2.336925   -1.579687   -1.949524
