16

O       0.376360    1.187316   -0.464728
C       0.050082   -0.068787    0.059112
C       0.194122   -0.254662    1.582847
C      -0.616551   -1.529123    1.820942
O      -1.637944   -1.569322    0.798970
C      -1.414339   -0.529943   -0.144306
C      -2.463251    0.547932    0.121385
O      -2.281150    1.742785    0.077404
H      -0.357701    1.784566   -0.256474
H       0.700396   -0.793163   -0.445709
H       1.234161   -0.344384    1.901438
H      -0.249606    0.605020    2.097070
H       0.006482   -2.426963    1.719175
H      -1.104614   -1.563087    2.799798
H      -1.588319   -0.922121   -1.156384
H      -3.451476    0.127097    0.405282
