23

C       0.010973   -0.706221    1.303901
C       0.148148    0.264627    0.126459
C       0.862922   -0.257994   -1.121221
C       2.181023   -0.986998   -0.986612
C       0.943128   -1.739632   -1.406247
C       0.742788    0.625510   -2.357638
O      -0.590946    0.678787   -2.886210
C       1.256789    2.058859   -2.185043
O       1.139124    2.773755   -3.397805
H      -0.614816   -1.566808    1.051182
H       0.981385   -1.081431    1.643746
H      -0.456327   -0.198941    2.153189
H      -0.864658    0.591383   -0.152601
H       0.663788    1.167683    0.476126
H       2.947966   -0.795668   -1.730175
H       2.572928   -1.166200    0.008511
H       0.511527   -2.434206   -0.695768
H       0.854038   -2.055872   -2.439783
H       1.324010    0.169122   -3.166935
H      -1.176783    0.984807   -2.184538
H       0.701611    2.561433   -1.374138
H       2.315254    2.051902   -1.903126
H       0.281653    2.513646   -3.759753
