18

C      -0.184229    1.461899   -0.047724
C       0.079054   -0.014957   -0.056590
C       0.114123   -0.827648   -1.179615
O      -0.010135   -0.566899   -2.508418
N       0.224900   -2.115640   -0.748866
C       0.840430   -3.445153   -0.939698
C       0.863516   -3.571762    0.629701
C       0.358365   -2.137485    0.624176
C       0.276172   -0.858507    1.101507
H       0.469311    1.977488    0.664636
H       0.005560    1.918521   -1.027730
H      -1.217981    1.709948    0.226571
H      -0.186846    0.373239   -2.613520
H       0.211540   -4.150002   -1.489365
H       1.833180   -3.400961   -1.395973
H       0.184568   -4.327122    1.035776
H       1.859459   -3.728966    1.051645
H       0.341672   -0.517196    2.123674
