18

C      -0.051557    1.397198   -0.656187
O      -0.187530   -0.001359   -0.746389
C       0.938541   -0.698225   -0.262846
C       0.668143   -2.189446   -0.428849
C       0.677145   -2.647773   -1.898472
O       2.019947   -3.078682   -2.088174
C       2.360658   -3.678478   -0.868426
O       1.751299   -2.915059    0.158697
H       0.082260    1.726682    0.386054
H       0.805400    1.762618   -1.243510
H      -0.967578    1.841964   -1.052488
H       1.848035   -0.427636   -0.824676
H       1.122573   -0.473647    0.799754
H      -0.271840   -2.447171    0.072376
H      -0.027143   -3.476461   -2.063037
H       0.459464   -1.841123   -2.599682
H       1.994197   -4.720536   -0.824001
H       3.448394   -3.656651   -0.750505
