17

O      -0.048069    0.033070   -0.051842
C      -0.000664    1.220068    0.046736
O       1.143420    1.918563   -0.146946
C       1.040374    3.325387   -0.071319
C       2.440326    3.905839    0.070587
C       2.398370    5.386756   -0.203717
C       1.358265    5.955439   -0.807700
C       0.182780    5.153066   -1.289505
O       0.421644    3.751843   -1.260408
H      -0.857829    1.865232    0.313548
H       0.414676    3.608286    0.794660
H       2.821298    3.703306    1.077919
H       3.106420    3.387712   -0.630238
H       3.246782    5.982706    0.118695
H       1.317609    7.027380   -0.978367
H      -0.716975    5.400703   -0.697624
H      -0.050228    5.391238   -2.332989
