17

C       0.124782    1.444312    0.202272
C      -0.064116   -0.022391    0.002421
N      -0.626259   -0.592913   -1.044356
C      -0.564367   -1.945959   -0.808559
C       0.038498   -2.204007    0.396142
C       0.308685   -3.483858    1.117202
C       1.395378   -3.474180    2.168515
O       1.917663   -2.491677    2.638115
N       0.343003   -0.958110    0.909222
H       1.184349    1.711640    0.289906
H      -0.292522    1.968545   -0.658296
H      -0.380887    1.802430    1.106350
H      -0.961155   -2.659675   -1.515835
H      -0.582875   -3.852140    1.657502
H       0.538956   -4.286396    0.404847
H       1.673135   -4.486747    2.533982
H       0.891985   -0.826791    1.745128
