19

C       0.024049    1.335083    0.150848
O      -0.056350   -0.043265   -0.167019
C      -1.325379   -0.587985   -0.076535
C      -2.412123   -0.157582   -1.073278
O      -3.486996   -1.013080   -0.671667
C      -2.907174   -1.750660    0.392887
C      -1.439200   -2.138448    0.062647
C      -1.093441   -2.017130    1.565595
C      -2.052229   -0.830981    1.307119
H       1.081762    1.605046    0.120588
H      -0.518984    1.958559   -0.572548
H      -0.368555    1.541108    1.156056
H      -2.711425    0.893216   -0.978624
H      -2.125707   -0.353413   -2.114089
H      -3.611721   -2.470490    0.804012
H      -1.093820   -2.875932   -0.662317
H      -1.460407   -2.811930    2.220565
H      -0.059359   -1.757462    1.793926
H      -2.418498   -0.080765    2.008726
