19

C      -0.157958    1.660015   -0.063211
C      -0.030883    0.139215   -0.056229
C       0.782269   -0.487067   -1.231393
C       1.763505   -0.938928   -0.136352
O       0.990884   -0.291878    0.895852
C      -1.316800   -0.499616    0.207222
C      -2.386800   -1.015843    0.412499
C      -3.651109   -1.695275    0.691956
O      -3.635978   -3.080205    0.374837
H       0.817698    2.112719   -0.260613
H      -0.865235    1.982293   -0.833566
H      -0.517536    2.011532    0.907574
H       0.272186   -1.281139   -1.775400
H       1.171765    0.249716   -1.935722
H       1.823674   -2.022940    0.019079
H       2.779891   -0.533429   -0.198675
H      -3.925737   -1.527533    1.745769
H      -4.453097   -1.259856    0.085340
H      -2.876171   -3.467989    0.821625
