16

O      -0.011680   -0.175510   -0.007154
C      -0.026904    1.048557   -0.031956
N      -1.223790    1.717075    0.154943
C      -1.509739    3.099347   -0.157463
C      -0.673158    4.088401    0.665256
N       0.683617    4.197790    0.169948
C       1.485672    3.137669   -0.133290
C       1.207361    1.818134   -0.239147
H      -2.003291    1.080127    0.219152
H      -1.374696    3.327030   -1.224884
H      -2.563149    3.270955    0.080235
H      -1.125159    5.083336    0.600844
H      -0.699596    3.770621    1.717813
H       1.147448    5.075816    0.325173
H       2.508297    3.444790   -0.338735
H       2.039809    1.173768   -0.492366
