12

N       0.000575    1.336730    0.089117
C      -0.035717   -0.013733    0.026296
N      -1.096905   -0.746456    0.004488
C      -0.737413   -2.171295   -0.009042
C       0.782788   -2.252844   -0.019843
O       1.499532   -3.215359   -0.040089
C       1.249325   -0.777766   -0.003011
O       2.371710   -0.342258   -0.028993
H       0.883603    1.786084   -0.089511
H      -0.845757    1.859757   -0.063936
H      -1.149683   -2.686282    0.867647
H      -1.158831   -2.671516   -0.889769
