16

N       0.054611   -3.683043   -0.017862
C       0.037354   -2.520893   -0.011919
C       0.017882   -1.157544   -0.004410
C       0.000605    0.052645    0.002335
C      -0.020208    1.481994    0.010443
C      -0.643629    2.419909    1.100639
C      -0.047493    3.368629    0.021445
C       1.210104    2.453136    0.001379
C      -0.668769    2.432100   -1.054416
H      -1.731882    2.390147    1.190222
H      -0.154408    2.407737    2.077215
H      -0.063240    4.456844    0.027856
H       1.832707    2.443381    0.898814
H       1.811094    2.453627   -0.910807
H      -0.202399    2.431229   -2.042253
H      -1.758817    2.403268   -1.118951
