19

N       0.130851    1.459033   -0.684433
C       0.167064    0.072669   -0.225955
C       0.734181   -0.941134   -1.251967
O      -0.097291   -0.897754   -2.390454
C       0.495025   -0.584368   -3.635871
C      -0.470413    0.271828   -4.433550
O      -0.537380    1.552358   -3.818289
C       0.919614   -0.033308    1.031178
N       1.546606   -0.145891    1.995084
H       1.078413    1.811316   -0.790468
H      -0.293592    1.478239   -1.611249
H      -0.866034   -0.236061   -0.018970
H       1.770948   -0.673816   -1.496108
H       0.734672   -1.954553   -0.828218
H       1.432717   -0.029090   -3.498019
H       0.721797   -1.502085   -4.199657
H      -0.107702    0.348021   -5.470001
H      -1.453175   -0.219214   -4.448311
H      -1.289203    2.030847   -4.178752
