20

C      -0.926688    1.139842    0.177233
C      -0.046536   -0.079873   -0.030419
C       1.089423   -0.018454   -1.091241
C       2.038185   -0.541311    0.020459
N       0.928317   -0.475375    1.058279
C       1.619033    0.649156    1.780253
C       1.931267    0.341012    3.240436
C       2.806181    0.527587    0.801468
O       3.894391    1.017535    0.729257
H      -0.355438    2.071902    0.225546
H      -1.628108    1.231841   -0.658794
H      -1.513341    1.046352    1.097599
H      -0.693438   -0.946923   -0.203335
H       0.976863   -0.677814   -1.953627
H       1.329061    0.986042   -1.451698
H       2.540104   -1.497075   -0.152496
H       1.108833    1.616165    1.706607
H       2.428353   -0.628376    3.334633
H       2.586897    1.112292    3.656645
H       1.008760    0.307669    3.827078
