18

C      -0.195317    1.499781    0.008480
C       0.110216    0.001438   -0.049433
C       1.064158   -0.378891   -1.182943
O       1.264611   -1.795002   -1.256776
C       1.575907   -2.457750   -0.103515
N       1.733056   -3.711639   -0.070147
C       1.723096   -1.611768    1.137549
C       0.659442   -0.525892    1.277325
O       0.302170   -0.108299    2.350465
H       0.726279    2.086999    0.083486
H      -0.735866    1.826331   -0.884354
H      -0.801005    1.717987    0.889688
H      -0.825823   -0.553019   -0.217398
H       0.653856   -0.095152   -2.154411
H       2.030628    0.132292   -1.066580
H       1.608160   -4.107696   -1.004324
H       1.748380   -2.247371    2.021247
H       2.687735   -1.082491    1.088212
