16

O      -0.078969    0.181850   -0.869860
C      -0.089836    1.194491   -0.223224
C      -1.370840    1.901217    0.227560
C      -1.094626    2.853365    1.406229
C      -0.033966    3.840026    0.960730
C       1.305303    3.954225    1.626754
N       1.151778    3.226120    0.375872
C       1.236523    1.841173    0.275150
O       2.217424    1.187812    0.526056
H      -1.755531    2.466388   -0.632240
H      -2.117972    1.137175    0.460692
H      -2.006810    3.367390    1.721317
H      -0.735298    2.278757    2.268759
H      -0.397809    4.706441    0.409974
H       1.861606    4.884548    1.564968
H       1.490821    3.361288    2.518613
