18

C       0.014126    1.525894    0.013638
N       1.265048    0.708494    0.064593
C      -0.029115    0.058746    0.001040
C      -0.585043   -1.011875    0.934578
C      -1.828606   -1.136700   -0.020376
C      -2.194882   -2.614607   -0.056837
O      -0.890013   -3.218294   -0.080852
C      -0.037104   -2.093025   -0.053467
C      -0.595575   -0.961933   -0.981377
H      -0.193808    2.084853    0.922190
H      -0.214602    2.059905   -0.905752
H       1.714608    0.710716   -0.848552
H      -0.582235   -1.042092    2.023404
H      -2.618239   -0.386725    0.001579
H      -2.747414   -2.946946    0.830673
H      -2.759013   -2.902003   -0.952741
H       1.009192   -2.390817   -0.063132
H      -0.608344   -0.936130   -2.071827
