23

C      -0.213278    1.624034    0.001472
C       0.034023    0.120765    0.012485
C       1.118975   -0.546643   -0.843556
C       2.555939   -0.313211   -0.189796
C       2.663976   -1.852202   -0.014649
C       1.138706   -1.761571    0.133935
C       0.760540   -0.618780    1.188988
C       0.054905   -0.922740    2.489955
C       2.122633    0.107804    1.230800
H       0.712070    2.203547    0.061858
H      -0.719104    1.918880   -0.924744
H      -0.855839    1.929119    0.835794
H      -0.913197   -0.401012   -0.180614
H       1.068283   -0.652225   -1.927543
H       3.333642    0.263625   -0.689992
H       2.933608   -2.366578   -0.942207
H       3.278437   -2.232163    0.808988
H       0.457474   -2.608921    0.051176
H       0.681062   -1.536272    3.148119
H      -0.189273   -0.002375    3.034388
H      -0.881771   -1.465338    2.320423
H       2.796749   -0.285810    1.998770
H       2.028550    1.184981    1.386231
