18

C      -0.044892    1.476984   -0.025064
C      -0.010040   -0.026837    0.064046
C      -1.196021   -0.823710   -0.470951
C      -1.033632   -2.188367    0.182844
O      -1.410958   -3.257471   -0.226724
C      -0.175946   -2.047638    1.453284
O       0.611819   -3.194482    1.654611
C       0.608955   -0.779271    1.206736
N       1.311173   -0.657408   -0.077245
H       0.859517    1.904651    0.413786
H      -0.098195    1.803709   -1.069713
H      -0.917129    1.882582    0.499350
H      -2.148812   -0.376650   -0.155072
H      -1.226456   -0.911595   -1.561697
H      -0.862771   -1.884129    2.306031
H       0.122017   -3.923499    1.245982
H       1.076599   -0.275040    2.046648
H       1.287906   -1.534109   -0.595745
