21

C      -0.123547    1.601433    0.011180
C      -0.033604    0.102477    0.008260
C      -0.867835   -0.780531    0.937905
O      -1.672703   -1.853052    0.555926
C       0.612765   -0.897174    0.968890
O       1.005725   -1.769452   -0.100098
C       0.600705   -0.757806   -1.102738
C      -0.293791   -1.328307   -2.195326
C       1.871293   -0.145106   -1.682621
H       0.828447    2.073007   -0.255250
H      -0.880998    1.951978   -0.700120
H      -0.410176    1.973992    0.999861
H      -1.316058   -0.214869    1.751432
H      -1.060314   -2.544997    0.269245
H       1.280324   -0.809395    1.820080
H      -1.222829   -1.725581   -1.787368
H      -0.544678   -0.542264   -2.915669
H       0.232726   -2.120714   -2.738361
H       2.422170   -0.905248   -2.244711
H       1.634678    0.678965   -2.363842
H       2.521510    0.234171   -0.889986
