18

C       0.001048    1.488575   -0.091787
C       0.000263   -0.008397   -0.020044
N       0.638860   -0.900429   -1.064523
C       0.054591   -1.862713   -0.062144
C       0.572040   -0.953625    1.076110
O      -0.284472   -0.997233    2.202657
C      -1.592906   -1.012753    1.611477
C      -1.226631   -0.973831    0.128808
O      -2.218726   -0.885637   -0.839102
H       1.016733    1.862376   -0.252843
H      -0.631890    1.844499   -0.911658
H      -0.378752    1.916523    0.841907
H       0.032776   -0.898078   -1.890254
H       0.133056   -2.946086   -0.163563
H       1.621363   -0.931013    1.356671
H      -2.132924   -1.922611    1.907170
H      -2.173000   -0.138214    1.930574
H      -2.751012   -1.688445   -0.817555
