19

O       0.000026    1.435357    0.030862
C       0.018559    0.010526    0.013989
C       0.946586   -0.526568    1.124484
O       0.679631   -1.864119    1.510876
C      -0.684201   -2.092052    1.811377
C      -1.446824   -0.984331    2.622474
C      -2.251982   -0.664207    1.365518
C      -1.659987   -1.878412    0.639237
C      -1.403641   -0.494588    0.123304
H       0.872085    1.749198   -0.230157
H       0.395133   -0.347357   -0.958005
H       1.987101   -0.516565    0.783142
H       0.872283    0.158241    1.979825
H      -0.725564   -3.081629    2.267445
H      -2.072764   -1.452206    3.386949
H      -0.870213   -0.185424    3.093905
H      -3.281152   -0.325711    1.358908
H      -2.141741   -2.654736    0.057941
H      -2.005599   -0.224982   -0.741050
