17

O       0.118258    1.252764   -0.361495
C       0.130397   -0.080302    0.087134
C      -0.004944   -0.358959    1.602012
O      -1.192798   -1.150255    1.373300
C      -1.239923   -0.767187    0.004980
C      -2.532794   -0.157139   -0.596575
C      -2.009388   -0.525400   -2.003115
C      -1.791437   -1.736151   -1.062423
O      -3.145856   -1.506946   -0.504604
H       1.014900    1.599910   -0.324804
H       0.932200   -0.662127   -0.385562
H       0.787521   -0.942027    2.082730
H      -0.216622    0.545302    2.185639
H      -3.125350    0.694358   -0.266298
H      -2.795802   -0.682336   -2.740779
H      -1.143699    0.014739   -2.391447
H      -1.504407   -2.762992   -1.289475
