16

O       0.092545    1.214247   -0.463262
C      -0.153018    0.077266    0.302829
C      -1.290294    0.062241    1.301853
C      -1.383005   -0.730470    0.011685
O      -2.131440   -0.218640   -1.055189
C      -3.509494   -0.567660   -1.056460
C      -4.326046    0.153981   -0.079110
C      -5.024510    0.747699    0.697776
H      -0.626182    1.272867   -1.105944
H       0.762234   -0.450521    0.554069
H      -1.174783   -0.482296    2.233110
H      -1.890138    0.962309    1.359386
H      -1.347879   -1.819183    0.045623
H      -3.865636   -0.342941   -2.067416
H      -3.621771   -1.651389   -0.903385
H      -5.636870    1.269393    1.391430
