18

O       0.274792    1.327989   -0.041814
C       0.200646   -0.057450    0.110375
C       0.217874   -0.660735    1.571850
C      -1.174900   -1.225379    1.300594
N      -2.020010   -0.050028    0.947083
C      -1.187790   -0.702053   -0.092748
C      -1.781007   -1.255598   -1.363202
C      -2.209489   -0.221091   -2.302838
C      -2.562379    0.634528   -3.068496
H      -0.522440    1.675741    0.381666
H       0.972586   -0.498904   -0.525152
H       0.986533   -1.426024    1.701575
H       0.281219    0.073194    2.378759
H      -1.629081   -2.124739    1.698787
H      -2.978518   -0.373736    0.821659
H      -1.043132   -1.907449   -1.849580
H      -2.634568   -1.900788   -1.112023
H      -2.866865    1.393668   -3.745576
