16

C       0.026345    1.517115   -0.034003
C       0.013547    0.062042   -0.010220
C      -0.010150   -1.141284    0.022294
C       0.017601   -2.588117    0.005025
C      -0.013591   -3.344864    1.377512
N      -1.471411   -2.905087    1.483617
C      -1.349887   -3.354141    0.029835
C      -0.575315   -4.563739    0.606493
O      -0.585494   -5.754319    0.624760
H       1.050342    1.906684   -0.039496
H      -0.480234    1.904739   -0.924832
H      -0.482360    1.930846    0.843580
H       0.744075   -2.978470   -0.712559
H       0.680515   -3.259526    2.210488
H      -2.019650   -3.574369    2.031812
H      -2.177499   -3.279344   -0.671862
