18

C       0.210455    1.515456    0.031699
C       0.043442    0.007215   -0.005274
O      -1.319928   -0.378503   -0.112608
C       0.963605   -0.809869   -0.984415
C       1.457359   -1.687860    0.197258
C       2.671151   -1.115616    0.944779
O       1.830600   -0.239008    1.735417
C       0.631397   -0.809903    1.177961
H       1.240828    1.785720    0.273654
H      -0.043683    1.955914   -0.940665
H      -0.449407    1.949554    0.789065
H      -1.664755   -0.019189   -0.937553
H       0.378244   -1.355951   -1.727459
H       1.746810   -0.240246   -1.493615
H       1.369152   -2.768675    0.107159
H       3.197705   -1.835101    1.584767
H       3.406544   -0.562566    0.346510
H      -0.078463   -1.157564    1.932634
