16

O       0.266663    0.246060   -1.280599
C       0.053046    1.216904   -0.584649
C       1.072412    1.768142    0.293476
C       1.898633    2.255982    1.020774
C      -1.288532    1.913982   -0.521382
C      -2.455537    1.379278   -1.384597
N      -3.324040    1.137911   -0.173394
C      -2.599821    0.145004    0.639608
C      -2.156737    1.552544    0.698917
H       2.642189    2.669672    1.658269
H      -1.148760    2.994171   -0.606809
H      -2.906862    2.137337   -2.025763
H      -2.241434    0.479460   -1.966075
H      -3.185085   -0.223205    1.476162
H      -1.985307   -0.601856    0.142406
H      -2.283033    2.178300    1.575703
