19

C       0.036826    1.473376    0.024984
C      -0.026146   -0.028441    0.004181
O       0.936481   -0.622593   -0.840094
C       0.272803   -1.612209   -1.635247
C      -0.850806   -2.146435   -0.720278
C      -0.201234   -2.958775    0.391099
C       0.060789   -2.192987    1.451193
C      -0.460698   -0.810252    1.264806
C      -1.281995   -0.834076   -0.018088
H       1.018082    1.812728    0.372183
H      -0.127165    1.882953   -0.977373
H      -0.722938    1.884664    0.695943
H      -0.139448   -1.160950   -2.552311
H       1.013898   -2.366533   -1.914723
H      -1.641542   -2.660088   -1.273038
H       0.130365   -3.980713    0.246972
H       0.610284   -2.498599    2.333719
H      -0.774404   -0.218971    2.119294
H      -2.277745   -0.418208   -0.114666
