13

O       0.024318    1.409203    0.180786
C       0.085174    0.016624    0.056596
C      -1.314184   -0.701525    0.005980
N      -0.900999   -1.218201   -1.314014
C       0.270899   -0.515018   -1.387597
O       1.081796   -0.327366   -2.255293
C      -1.611653   -1.702043    1.014934
C      -1.861977   -2.523291    1.855613
H       0.670018    1.779837   -0.432763
H       0.760200   -0.443935    0.788140
H      -2.115209    0.042081   -0.061359
H      -1.407315   -1.762004   -1.998287
H      -2.081987   -3.249153    2.599381
