18

C       0.458573    1.405824   -0.222564
C       0.085595   -0.029181    0.103073
O       0.802396   -1.016656   -0.699759
C       1.369713   -1.670388    0.474812
C       2.892405   -1.640791    0.414650
O       3.342985   -2.285016   -0.758418
C       0.661861   -0.667278    1.348543
N       0.634606   -0.503570    2.600144
O      -0.173887    0.592698    2.947568
H       1.532670    1.570562   -0.103198
H       0.183392    1.635688   -1.256379
H      -0.077108    2.086668    0.444572
H      -0.999331   -0.174912    0.009136
H       1.013126   -2.705008    0.556082
H       3.240963   -0.597808    0.468766
H       3.311080   -2.181917    1.269220
H       2.880093   -1.859504   -1.490790
H      -0.107343    0.600369    3.908659
