21

C      -0.034229    1.416098    0.012344
O      -0.016578    0.009983   -0.002254
C       0.642599   -0.520069   -1.130192
C       0.592590   -2.039756   -1.050341
C       1.307367   -2.711048   -2.225901
C       1.183345   -4.245154   -2.175373
O      -0.154978   -4.656746   -2.232272
C       1.975708   -4.876182   -3.301094
O       1.462400   -5.612272   -4.108929
H       0.983399    1.839003    0.029869
H      -0.559155    1.828766   -0.864313
H      -0.560953    1.728567    0.917362
H       0.159443   -0.168473   -2.059315
H       1.689614   -0.167445   -1.163449
H       1.047569   -2.357227   -0.104087
H      -0.451792   -2.364327   -1.027205
H       0.879912   -2.364248   -3.175460
H       2.371511   -2.437989   -2.229887
H       1.650784   -4.593281   -1.234235
H      -0.213602   -5.250677   -2.997360
H       3.054779   -4.621658   -3.346331
