18

C       1.016963   -0.070646    1.261746
C       0.111536    0.075340    0.035132
C       0.726359   -0.506591   -1.254437
C       0.671200   -2.047796   -1.293535
O       1.556435   -2.629990   -2.227153
C       0.029470    0.081988   -2.471763
F       0.189361    1.410421   -2.553734
F       0.507490   -0.436782   -3.630019
F      -1.291235   -0.162533   -2.459950
H       1.237177   -1.117092    1.493961
H       1.971790    0.443622    1.109343
H       0.540116    0.366500    2.143817
H      -0.855855   -0.406587    0.219732
H      -0.101270    1.136761   -0.126393
H       1.777734   -0.205651   -1.331620
H       0.972179   -2.434250   -0.316612
H      -0.370789   -2.362971   -1.460774
H       1.312907   -2.307696   -3.100478
