17

C      -0.018688    1.473174   -0.146498
C       1.297466    0.750885    0.059261
O       2.191297    0.292968   -0.936625
C       1.558445   -0.822542   -1.522792
C       0.876674   -2.031913   -0.775374
C       0.568306   -2.138217    0.698789
C      -0.056278   -1.041428    1.146347
C       0.010061   -0.029616    0.030155
C       0.101327   -0.832736   -1.277432
H      -0.333881    2.119076    0.668184
H      -0.307481    1.823197   -1.132886
H       1.793223    0.905649    1.011092
H       2.005426   -1.068256   -2.479861
H       0.910264   -2.944923   -1.362567
H       0.809702   -3.017370    1.282634
H      -0.359789   -0.832025    2.164047
H      -0.696371   -0.831118   -2.014977
