15

N      -0.424243    1.315539   -0.273053
C      -0.012306    0.163632    0.044305
C      -0.875333   -1.053450   -0.196804
N      -1.359497   -1.630517    1.040357
C      -0.516160   -2.148643    1.957114
C       0.833189   -2.018751    1.996021
C       1.735186   -1.166292    1.235687
O       2.931478   -1.274486    1.254416
O       1.240753   -0.045541    0.537062
H       0.282740    2.018703   -0.046650
H      -1.724292   -0.739914   -0.801215
H      -0.291745   -1.806215   -0.748088
H      -2.348858   -1.759500    1.153510
H      -0.999478   -2.760347    2.714032
H       1.367297   -2.624102    2.716899
