20

C      -0.189055    1.405301   -1.005090
C      -0.044642    0.189302   -0.083800
C      -1.371631   -0.467898    0.231635
C      -2.036558   -1.367507   -0.777731
C      -1.478017   -1.943671    0.507030
O      -0.297120   -2.688281    0.496859
O      -2.286610    0.364367    0.925748
C      -2.066798    0.521228    2.250722
N      -2.773125    1.331905    2.911549
H       0.782925    1.874266   -1.183703
H      -0.608405    1.116743   -1.974475
H      -0.853747    2.153150   -0.564005
H       0.610929   -0.564242   -0.528569
H       0.433483    0.490678    0.857300
H      -3.113542   -1.301165   -0.878731
H      -1.488045   -1.560667   -1.693473
H      -2.207753   -2.238477    1.261115
H      -0.477358   -3.527767    0.060637
H      -1.263369   -0.117720    2.638639
H      -2.493106    1.313539    3.890204
