18

C       0.160106    1.668099    0.123176
C      -0.044287    0.155677    0.112384
C       0.681164   -0.541929   -1.082868
O       1.739252   -0.989941   -0.156769
C       0.933478   -0.665820    0.903087
N       0.869310   -1.151034    2.059263
C      -0.412907   -0.719606    2.659728
C      -1.555651   -0.901370    1.644458
O      -1.385369   -0.148044    0.430539
H       1.190082    1.930672   -0.134566
H      -0.514579    2.126791   -0.606511
H      -0.072182    2.082049    1.107323
H       0.145948   -1.402010   -1.491305
H       1.085568    0.094482   -1.871661
H      -0.615997   -1.345410    3.533479
H      -0.369118    0.319920    3.010824
H      -1.635565   -1.970550    1.402448
H      -2.508947   -0.572408    2.069382
