14

N      -0.260969   -1.039922    0.147348
C      -0.086918    0.098786    0.073993
C       0.090942    1.556547   -0.035145
C       1.521619    1.904815   -0.055397
N       2.634561    2.209449   -0.085183
C      -0.637903    2.118276   -1.257272
C      -2.107892    2.424017   -1.156292
C      -1.105891    3.548367   -1.237137
H      -0.341462    2.006499    0.868618
H      -0.268868    1.721907   -2.196564
H      -2.725136    2.211494   -2.020981
H      -2.601634    2.248724   -0.206230
H      -0.922404    4.132864   -0.341694
H      -1.029431    4.114429   -2.157774
