22

C       0.478883    0.928544    0.502246
C       0.130880   -0.512781    0.120924
N      -1.306297   -0.674567    0.013470
C      -1.841228   -1.150110   -1.028750
C      -1.203251   -1.637137   -2.310200
O      -3.190153   -1.296686   -1.099483
C      -3.951262   -0.932321    0.060971
C      -5.398356   -1.246259   -0.274979
O      -5.595695   -2.620882   -0.545644
H       1.556617    1.039494    0.658436
H       0.172825    1.623563   -0.286226
H      -0.039657    1.214721    1.421544
H       0.677871   -0.795224   -0.791107
H       0.484480   -1.184815    0.914634
H      -0.738468   -2.616939   -2.159317
H      -1.960778   -1.731849   -3.088760
H      -0.425513   -0.951049   -2.652296
H      -3.604643   -1.514919    0.920274
H      -3.804439    0.129268    0.287350
H      -6.029650   -0.995769    0.583915
H      -5.719881   -0.618699   -1.121685
H      -4.944521   -2.857242   -1.215538
