17

C       0.466153    1.513645    0.208673
N       1.177796    0.319995   -0.280273
C      -0.240577    0.212785    0.095723
C      -0.544531   -0.629587    1.289825
C       0.514137   -0.985153    2.313495
C      -0.120394   -2.078743    1.506851
O      -1.252559   -2.717455    2.083874
C      -2.177232   -1.731713    2.219786
N      -1.902346   -0.563032    1.799503
H       0.786053    1.861114    1.186556
H       0.212463    2.298765   -0.497825
H       1.267877    0.353133   -1.291517
H      -0.972925    0.123790   -0.704276
H       1.531999   -0.743384    2.029813
H       0.266698   -0.892009    3.365666
H       0.432040   -2.715470    0.829088
H      -3.104239   -2.039995    2.687507
