20

C      -0.343908   -0.911728   -0.919177
C      -0.178828    0.167312   -0.413589
C       0.000009    1.465045    0.200712
C       0.199677    1.577421    1.746201
C       1.202806    2.731310    1.489600
C       1.354509    2.241736    0.024534
N       2.481301    1.339696   -0.104261
C       2.922399    1.034655   -1.459072
C       3.727483    1.931112   -0.583637
H      -0.482432   -1.866496   -1.362152
H      -0.814199    2.131336   -0.106358
H      -0.690428    1.788789    2.341637
H       0.697005    0.688959    2.137022
H       0.727839    3.714850    1.540381
H       2.119091    2.743428    2.081981
H       1.347371    3.016093   -0.760426
H       3.228585    0.008200   -1.634737
H       2.386168    1.497247   -2.285953
H       3.728739    2.993216   -0.825185
H       4.635310    1.572207   -0.107494
