17

C       0.021237    1.459885   -0.029250
N       0.023373    0.015821    0.005063
C       0.089075   -0.828418   -1.049083
N       0.203467   -0.369010   -2.361088
N       0.122389   -2.098973   -0.683840
C       0.078232   -2.066696    0.683188
O       0.099000   -3.207735    1.416761
C       0.006073   -0.791580    1.169857
N      -0.061548   -0.212948    2.449137
H       0.830685    1.827632   -0.667256
H      -0.930152    1.858303   -0.404125
H       0.162881    1.814759    0.992563
H      -0.511705    0.300348   -2.622010
H       0.182899   -1.156845   -2.996665
H       0.150501   -3.929637    0.779391
H       0.735517   -0.460383    3.025616
H      -0.899586   -0.480424    2.954928
