17

C       0.006179    1.475926   -0.024957
N      -0.033804    0.030721   -0.024414
C      -0.021885   -0.798008   -1.101878
C       0.019966   -2.089078   -0.602934
N       0.030119   -3.256359   -1.370737
C       0.066887   -4.547526   -0.915878
N       0.096008   -4.863837    0.320086
C       0.036019   -1.930099    0.803282
N       0.007217   -0.640652    1.137493
H       1.023821    1.850425   -0.184288
H      -0.644448    1.868636   -0.810870
H      -0.350121    1.818247    0.946535
H      -0.048231   -0.420396   -2.111993
H       0.011193   -3.136757   -2.368885
H       0.067686   -5.257928   -1.751856
H       0.119988   -5.875364    0.419838
H       0.058524   -2.706312    1.547207
