21

C      -0.154144    1.583324    0.049759
C      -0.006588    0.088814   -0.003418
C       0.029207   -0.595805   -1.152224
C       0.124687   -2.076992   -1.215394
C       1.327766   -2.883940   -0.725776
C       2.032479   -2.161041    0.420906
C       0.656793   -2.052320    1.170697
C       0.104474   -0.634193    1.324608
C       0.013495   -2.888008    0.042090
H       0.708235    2.054274    0.540003
H      -0.255851    2.016191   -0.949398
H      -1.036567    1.872363    0.636457
H      -0.030870   -0.061129   -2.097813
H      -0.342303   -2.531261   -2.085181
H       1.754906   -3.665863   -1.343204
H       2.734741   -2.808756    0.951192
H       2.532379   -1.218072    0.177064
H       0.671477   -2.570311    2.132255
H       0.760396   -0.059809    1.994693
H      -0.877149   -0.651621    1.823323
H      -0.715199   -3.679410    0.170256
