20

C       0.131223    1.406245    0.029547
O       0.019965    0.002575    0.025273
C       0.702241   -0.604484    1.093630
C       0.570421   -2.132137    0.954166
C       1.238592   -2.608100   -0.254501
C       1.828555   -3.006968   -1.223551
C       1.088335   -2.820574    2.219318
C       1.544421   -4.228392    2.223233
N       2.513368   -3.128611    2.400595
H       1.179446    1.732376   -0.056880
H      -0.427776    1.779843   -0.831483
H      -0.290806    1.847528    0.946546
H       1.766294   -0.318213    1.099776
H       0.269933   -0.294098    2.060081
H      -0.504300   -2.344899    0.867636
H       2.323575   -3.349133   -2.098796
H       0.613784   -2.437562    3.121197
H       1.382465   -4.845071    3.102562
H       1.544669   -4.761453    1.277090
H       2.996971   -2.982953    1.515145
