19

C       0.024402    1.598336    0.018504
C       0.086642    0.075827    0.048028
C       1.084257   -0.704428   -0.807882
C       1.219023   -1.770059    0.208437
N       2.386383   -0.886117   -0.065245
C       2.166999   -0.223246    1.261077
C       0.703286   -0.701820    1.262152
C      -0.084973   -0.933017    2.523742
H       1.008790    2.059591    0.133176
H      -0.388143    1.945125   -0.935360
H      -0.624701    1.982112    0.813950
H      -0.911716   -0.338254   -0.139460
H       1.146097   -0.776058   -1.886425
H       1.239956   -2.851138    0.159312
H       2.777383   -0.745243    2.004183
H       2.383056    0.850389    1.302537
H      -0.291440    0.015176    3.034572
H      -1.047713   -1.411503    2.313285
H       0.461414   -1.573539    3.224962
