17

N      -0.547663   -0.814845   -1.215505
C      -0.297116    0.137809   -0.611575
C       0.015035    1.364809    0.138042
C      -0.558108    1.311697    1.540329
C       0.086682    1.739017    2.621167
C       1.475288    2.312673    2.629658
C       2.220123    2.110832    1.326949
N       2.356442    0.718692    0.872719
C       1.515838    1.641302    0.105621
H      -0.480819    2.184694   -0.404318
H      -1.564299    0.913179    1.621243
H      -0.416565    1.686462    3.583185
H       1.421296    3.388884    2.848747
H       2.052709    1.870545    3.452353
H       3.069559    2.773078    1.173209
H       3.243931    0.571699    0.401135
H       1.882240    1.984174   -0.858760
