21

O      -0.074298   -0.111094    0.004932
C      -0.000809    1.090599   -0.007631
C       1.281352    1.889524   -0.052761
C       1.305612    2.902314   -1.212438
C       2.520087    3.839176   -1.124364
C       2.472248    4.921850   -2.212128
C       2.094925    4.356393   -3.556685
C       1.577563    3.139898   -3.720873
C       1.280505    2.198996   -2.582417
H      -0.924197    1.718750    0.016170
H       1.351458    2.437540    0.898714
H       2.126887    1.196024   -0.106946
H       0.400884    3.524531   -1.138238
H       2.572357    4.301679   -0.131977
H       3.435328    3.244152   -1.243004
H       1.756761    5.709266   -1.930716
H       3.444400    5.426217   -2.280507
H       2.264140    4.991448   -4.423100
H       1.345529    2.782305   -4.721297
H       2.006110    1.370724   -2.585338
H       0.304866    1.721531   -2.743429
