17

O      -0.027246    1.445072   -0.346707
C      -0.064503    0.063355   -0.279180
C       0.034293   -0.606774    1.126610
O      -1.307584   -0.025750    1.420619
C      -1.426361   -0.618460    0.058356
C      -0.689251   -1.871019    0.593743
C      -0.021279   -2.902240   -0.315511
C       0.795739   -3.891480    0.491916
O       1.958165   -4.136009    0.303366
H      -0.569194    1.749692    0.396217
H       0.535772   -0.337319   -1.095710
H       0.797754   -0.509044    1.898946
H      -2.395656   -0.539908   -0.435731
H      -1.269877   -2.346626    1.388721
H      -0.811068   -3.472589   -0.826129
H       0.626208   -2.465149   -1.077577
H       0.227293   -4.395806    1.308395
