21

C       0.076175    1.510527    0.103460
C      -0.035982    0.001768    0.042680
O       0.926068   -0.619484   -0.881208
C       1.228036   -1.674122    0.097921
C       2.641463   -1.898428    0.653917
C       2.427793   -1.774227    2.205475
C       3.667199   -1.280993    2.956867
C       1.241576   -0.803128    2.289815
C       0.573641   -0.835478    1.143319
H       1.087754    1.806991    0.391471
H      -0.154132    1.946503   -0.873516
H      -0.634047    1.913716    0.833216
H      -1.054796   -0.301585   -0.239257
H       0.727266   -2.603622   -0.204926
H       3.101696   -2.846008    0.358346
H       3.287139   -1.079553    0.317289
H       2.154891   -2.758836    2.613383
H       3.965903   -0.285532    2.609444
H       3.482243   -1.220479    4.034687
H       4.513906   -1.958097    2.802407
H       1.092839   -0.134120    3.130193
