21

C      -0.110948    1.452400    0.013034
C       0.035622   -0.065853    0.016509
C       0.846250   -0.614144   -1.158635
C       2.145971   -0.524656   -0.375109
C       1.212745   -0.575487    0.902552
C       1.208285   -2.135449    0.780463
C      -0.009984   -2.969705    1.158233
C       1.588705   -1.881565   -0.678849
O       2.128187   -2.787399   -1.571836
H       0.853107    1.941164   -0.164905
H      -0.802966    1.782686   -0.769511
H      -0.500291    1.809007    0.973345
H      -0.941869   -0.525917    0.207479
H       0.712201   -0.437608   -2.219803
H       3.101966   -0.072782   -0.592469
H       1.422916   -0.103928    1.861601
H       2.096407   -2.519052    1.297294
H      -0.910371   -2.659709    0.620079
H       0.164868   -4.026634    0.927366
H      -0.219721   -2.900647    2.231562
H       1.405304   -3.240664   -2.019133
