18

C       0.108754   -1.131341    0.277135
C       0.046969    0.064251    0.380109
C      -0.037737    1.519283    0.475143
N       1.273822    2.135048    0.232679
C       1.763772    2.133805   -1.216791
C       0.833132    3.356417   -1.507516
C       1.255402    3.642278   -0.029196
C       2.763718    3.858912   -0.202179
C       3.104764    2.845021   -1.001031
H       0.164817   -2.188861    0.200195
H      -0.852128    1.862330   -0.186849
H      -0.335639    1.799541    1.494197
H       1.726268    1.194816   -1.766586
H       1.146276    4.067545   -2.275096
H      -0.221262    3.101721   -1.637311
H       0.690752    4.277433    0.653663
H       3.360601    4.635798    0.251873
H       4.064716    2.545682   -1.394482
