19

C      -0.104355    1.366056    0.217929
O      -0.110078   -0.038835    0.287767
C      -1.284921   -0.604273   -0.261278
C      -1.164886   -2.103567   -0.173592
C      -1.492135   -2.821156    1.111717
C      -2.410036   -2.960533   -0.093359
O      -3.623042   -2.251112   -0.078852
C      -2.448728   -4.214331   -0.802830
C      -2.511466   -5.269736   -1.376664
H       0.833236    1.712420    0.659809
H      -0.161144    1.726097   -0.822105
H      -0.945133    1.808376    0.776472
H      -2.177422   -0.258317    0.279519
H      -1.401732   -0.292977   -1.313240
H      -0.355561   -2.521413   -0.763177
H      -0.891335   -3.673029    1.406958
H      -1.883585   -2.218625    1.924355
H      -4.269974   -2.791421    0.388543
H      -2.560917   -6.195099   -1.895149
