20

C      -0.274953    1.556800   -0.110905
C       0.023410    0.075154    0.036834
C       1.320084   -0.606512   -0.340376
C       2.641921    0.176708   -0.351299
C       3.019929    0.464037    1.110781
C       2.223082    1.445416    1.935048
C       1.886754   -0.027006    1.990061
C       0.832227   -0.653344    1.100164
H       0.614939    2.159102   -0.305055
H      -0.945464    1.705432   -0.964241
H      -0.775071    1.968199    0.772413
H      -0.840322   -0.523655   -0.248244
H       1.263901   -1.476487   -0.987299
H       3.417516   -0.447962   -0.805569
H       2.590925    1.088763   -0.958867
H       4.055560    0.308150    1.394720
H       2.725483    1.855901    2.805916
H       1.549016    2.143846    1.462713
H       2.088659   -0.549829    2.918525
H       0.376933   -1.555573    1.495352
