13

C       0.051337    1.558852   -0.020923
C       0.039313    0.022762   -0.026034
O       0.812734   -0.517575    1.040750
C      -1.329278   -0.502053   -0.021052
C      -2.463408   -0.924102    0.019661
C      -3.738055   -1.398190    0.062794
C      -4.869365   -1.818471    0.102262
H       1.086386    1.909873   -0.024784
H      -0.466507    1.956343   -0.898391
H      -0.449491    1.942951    0.873455
H       0.543886   -0.329687   -0.934232
H       0.344667   -0.332849    1.863026
H      -5.864023   -2.188359    0.135173
