23

C       0.011343    1.577481   -0.026496
C       0.006743    0.120875   -0.008596
C       0.011125   -1.085124   -0.003391
C       0.017856   -2.536975    0.001097
C       0.248441   -3.197131    1.415431
C       1.020777   -2.451270    2.488966
C      -1.287917   -3.357252    1.545925
C      -1.409541   -3.209163    0.007630
C      -2.600310   -2.477538   -0.585728
H       1.019260    1.975372    0.137109
H      -0.343873    1.965889   -0.987712
H      -0.636408    1.990299    0.755037
H       0.688344   -2.898974   -0.785453
H       0.701714   -4.180374    1.246775
H       0.617523   -1.445116    2.636621
H       0.966618   -2.985493    3.444298
H       2.078797   -2.349645    2.222870
H      -1.672513   -4.271045    2.006673
H      -1.728170   -2.493717    2.057035
H      -1.308292   -4.194961   -0.459935
H      -2.689089   -1.469091   -0.171103
H      -2.510113   -2.382974   -1.673600
H      -3.529702   -3.018082   -0.373522
