21

C      -0.188380    1.217797   -0.033021
O       0.367906   -0.081345   -0.096376
C       0.817911   -0.583276    1.132961
C       2.089149    0.026800    1.677516
C      -0.252646   -1.095989    2.098554
C       0.578669   -2.049352    1.293041
C       0.185335   -3.059950    0.226137
C       1.297130   -3.919678    0.867159
O       1.541891   -2.919234    1.888010
H       0.561801    1.978534    0.223413
H      -0.586487    1.441399   -1.025773
H      -1.004598    1.273528    0.701365
H       1.933512    1.048469    2.039917
H       2.472589   -0.575678    2.504094
H       2.853973    0.051469    0.894393
H      -0.049907   -1.027556    3.162772
H      -1.294224   -0.978026    1.815924
H      -0.823011   -3.467155    0.321872
H       0.353288   -2.733946   -0.800556
H       0.981441   -4.871547    1.307056
H       2.183640   -4.084506    0.244114
