18

C      -0.587635    1.425746    0.044311
C      -0.085896   -0.018813    0.009796
C       0.603803   -0.481664   -1.259444
C       1.730179   -1.133616   -0.974581
C       1.968086   -1.108557    0.496859
C       2.219896    0.251328    1.096432
C       2.651118    1.366258    0.299787
C       3.087781    2.315941   -0.296860
N       0.860718   -0.354321    1.109016
H       0.215089    2.139508   -0.143798
H      -1.363318    1.567280   -0.715059
H      -1.027472    1.642874    1.021718
H      -0.959684   -0.665866    0.184517
H       0.203240   -0.297667   -2.249644
H       2.409015   -1.597440   -1.678633
H       2.338460   -1.990379    1.014469
H       2.628200    0.267785    2.105326
H       3.458006    3.151390   -0.837696
