21

C      -0.091220    1.545756   -0.052899
C      -0.048769    0.011860    0.020348
C       0.826945   -0.481399    1.179845
C      -1.445153   -0.544612    0.087262
O      -2.354437   -0.205990   -1.018751
C      -3.149333   -1.039295   -0.134840
C      -1.988744   -2.012474    0.228758
C      -2.257480   -1.855341    1.741572
C      -2.570309   -0.448836    1.185065
H       0.910143    1.951790   -0.227045
H      -0.747745    1.876914   -0.860914
H      -0.467537    1.970061    0.884911
H       0.378907   -0.362834   -0.920268
H       0.438402   -0.135321    2.143895
H       0.886301   -1.573703    1.208992
H       1.844733   -0.093067    1.075782
H      -4.182139   -1.257991   -0.404921
H      -1.666617   -2.883138   -0.343161
H      -3.111031   -2.414338    2.135999
H      -1.402133   -1.947950    2.413681
H      -2.910120    0.451326    1.697521
