20

C      -0.443183    1.518120    0.396332
C      -0.119611    0.043422    0.198179
C       0.291148   -0.455990   -1.194238
C       1.617847    0.107158   -1.613812
C       1.590502   -1.038306   -0.642698
C       1.246590   -0.550995    0.785752
C       2.238839    0.390903    1.479407
C       0.961337   -1.683568    1.664333
N       0.739035   -2.578086    2.363185
H       0.341001    2.174907    0.009417
H      -1.370969    1.768586   -0.129075
H      -0.588527    1.753938    1.455668
H      -0.946000   -0.559839    0.580971
H      -0.391875   -0.897612   -1.909115
H       1.936170   -0.164427   -2.615086
H       1.933183    1.101711   -1.312921
H       2.058720   -1.991122   -0.854383
H       2.489682    1.237710    0.838020
H       1.822669    0.778974    2.413508
H       3.164560   -0.141081    1.717381
