19

C       0.018198    1.463660    0.137959
N       0.228434    0.031815    0.029008
C       0.502359   -0.585120   -1.152512
O       0.629836    0.011573   -2.208711
C       0.610335   -2.109961   -1.062661
C       1.410406   -2.682138   -2.250321
C       2.908851   -2.330707   -2.181672
C       1.218744   -4.132980   -2.329233
N       1.072218   -5.278552   -2.378930
H       0.723317    1.913242    0.845002
H       0.180931    1.892150   -0.851265
H      -1.001971    1.694397    0.464109
H       0.133071   -0.534185    0.856044
H       1.062969   -2.417212   -0.113228
H      -0.407515   -2.517022   -1.073346
H       0.993560   -2.234267   -3.158910
H       3.363352   -2.731068   -1.270357
H       3.443824   -2.745806   -3.038970
H       3.023133   -1.245112   -2.194160
