14

N       0.015267    1.337788    0.158598
C      -0.013324   -0.023362    0.055339
N      -1.132868   -0.666020    0.024523
N      -1.063663   -2.037293   -0.013035
C       0.057085   -2.818943   -0.019281
O       0.056269   -4.032172   -0.041928
N       1.232307   -2.064209   -0.002720
C       1.316851   -0.683658    0.011453
N       2.373396    0.033527   -0.020696
H       0.898691    1.759334   -0.086767
H      -0.828887    1.831082   -0.081648
H      -1.952300   -2.509703   -0.023241
H       2.078387   -2.615671   -0.026043
H       3.227083   -0.523078   -0.062860
