23

C       0.797513    1.445187    0.180894
O       0.071017    0.262944   -0.082914
C       0.565615   -0.533377   -1.164735
C       0.774856   -1.959068   -0.604484
C       2.012676   -2.051588    0.292121
O      -0.387272   -2.387144    0.087640
C      -0.391530   -0.503261   -2.342598
C      -1.882706   -0.545715   -2.148313
C      -1.227242    0.710523   -2.665129
H       1.836971    1.230898    0.468034
H       0.808430    2.121014   -0.685278
H       0.299591    1.949295    1.013602
H       1.540544   -0.141633   -1.489962
H       0.889288   -2.647456   -1.450678
H       1.939528   -1.337759    1.119762
H       2.089175   -3.056082    0.716147
H       2.930814   -1.838376   -0.266563
H      -0.616706   -1.657259    0.677122
H      -0.007027   -1.053012   -3.198391
H      -2.470564   -1.148401   -2.831240
H      -2.251803   -0.528459   -1.130953
H      -1.181414    1.554038   -1.986231
H      -1.356584    0.978739   -3.707947
