16

C       0.001422    1.489507    0.110154
C       1.387596    2.166996   -0.070639
C       2.150995    1.380976   -1.073958
C       1.968982    0.064579   -1.350049
C       0.919174   -0.697669   -0.695718
C       0.015622   -0.027629    0.033478
N       2.938778   -0.351184   -2.259125
C       3.636488    0.715857   -2.471840
O       3.229103    1.819571   -1.782328
H      -0.439107    1.817882    1.056286
H      -0.674037    1.856529   -0.678285
H       1.260836    3.211679   -0.370172
H       1.936263    2.179317    0.883571
H       0.897902   -1.776297   -0.802331
H      -0.789070   -0.556030    0.534771
H       4.485124    0.845912   -3.124324
