18

N       0.469236   -1.208690    0.708154
C       0.241411   -0.114655    0.414139
C      -0.055021    1.277652    0.049094
C      -0.880881    1.937313    1.176367
C      -1.302896    3.376318    0.883210
O      -0.252722    4.300669    1.072904
C       0.625358    4.467053   -0.015851
C       1.480716    3.288399   -0.410561
C       1.224117    1.982047   -0.375289
H      -0.702869    1.221736   -0.841103
H      -1.776528    1.328283    1.341941
H      -0.303847    1.931027    2.106007
H      -1.725239    3.464690   -0.132291
H      -2.086456    3.665793    1.590883
H       0.066365    4.808832   -0.907997
H       1.282324    5.294130    0.272319
H       2.441703    3.580786   -0.831076
H       1.990744    1.310377   -0.751689
