15

N      -0.138090    1.464769    0.185001
C      -0.139237    0.020811    0.004843
C      -1.529635   -0.464024   -0.104565
N      -2.605599   -0.869340   -0.213800
C       0.653956   -0.519846   -1.203744
O       0.882194    0.385118   -2.271237
C       2.027008   -0.078469   -1.527257
C       2.779225    0.866490   -0.744565
C       3.485607    1.603010   -0.107576
H       0.790387    1.763823    0.463567
H      -0.328088    1.909238   -0.709025
H       0.282496   -0.438442    0.908424
H       0.377144   -1.529411   -1.511038
H       2.646256   -0.780649   -2.085068
H       4.102697    2.264340    0.450595
