22

C      -0.115641    1.563794   -0.082648
C       0.029529    0.042417    0.015867
O       0.718559   -0.460053   -1.128579
C       0.792796   -0.489472    1.258816
C       0.755569   -2.030862    1.224412
C       2.256295   -0.010171    1.267593
C       0.078032    0.000717    2.530577
O       0.688695   -0.607377    3.661131
H       0.859774    2.056388   -0.111270
H      -0.649935    1.825149   -1.004144
H      -0.694045    1.976514    0.749087
H      -0.983884   -0.394155    0.053029
H       0.261429   -0.141427   -1.912481
H       1.251302   -2.404274    0.326709
H       1.248807   -2.443667    2.106245
H      -0.278298   -2.396764    1.216381
H       2.326967    1.080217    1.341222
H       2.779559   -0.430884    2.129268
H       2.766700   -0.322890    0.354309
H       0.149154    1.095906    2.604126
H      -0.992356   -0.261310    2.476015
H       0.266305   -0.259831    4.451223
