20

C      -0.072402   -1.230716   -0.085312
C      -0.054318   -0.031672    0.000105
C       0.002467    1.421542    0.096557
C       1.419452    1.990281   -0.129993
C       1.465288    3.506902   -0.014909
C       1.251926    4.176578    1.375795
C       2.356662    5.203164    1.007545
C       2.842614    4.224740   -0.095263
H      -0.101059   -2.289247   -0.158853
H      -0.687656    1.863351   -0.634683
H      -0.361924    1.735956    1.083286
H       2.103905    1.542905    0.601295
H       1.774747    1.677924   -1.119522
H       0.776670    3.952802   -0.744056
H       0.257157    4.559230    1.617629
H       1.574594    3.512956    2.185755
H       1.933238    6.116697    0.580195
H       3.068264    5.484573    1.787111
H       3.646347    3.575768    0.268697
H       3.145122    4.642612   -1.058765
