16

O      -0.193426   -0.008914   -0.017169
C      -0.112731    1.173316    0.025413
C      -0.969279    2.457998   -0.019833
N      -0.044478    2.926397    1.104302
C       0.919310    2.323070    0.083873
C       0.076869    2.976594   -1.064492
C       0.119873    2.443093   -2.501820
C      -0.950592    2.997905   -3.321977
C      -1.843921    3.474642   -3.969123
H      -2.046366    2.606252    0.006264
H       0.031973    3.946658    1.029191
H       1.997595    2.314673    0.231319
H       0.147052    4.068992   -1.039616
H       1.092661    2.692801   -2.944965
H       0.056357    1.347601   -2.500684
H      -2.629202    3.884377   -4.554752
