23

C      -0.234635    1.516404    0.072905
C      -0.231240   -0.002193   -0.120957
C       0.914563   -0.487808   -1.018745
C       0.924882   -1.989200   -1.202056
C       0.071400   -2.647568   -2.248673
C       1.586103   -2.640370   -2.413190
C       2.206439   -1.854570   -3.441427
C       2.743217   -1.207193   -4.305407
C       3.389571   -0.429257   -5.352901
H       0.699005    1.859258    0.532915
H      -0.339003    2.037149   -0.885583
H      -1.059812    1.836165    0.717011
H      -0.160734   -0.496539    0.857163
H      -1.187653   -0.322882   -0.553170
H       0.847382   -0.003620   -2.000215
H       1.874011   -0.166868   -0.590236
H       1.049260   -2.551083   -0.278902
H      -0.406218   -3.595720   -2.027648
H      -0.489925   -2.003532   -2.917037
H       2.079212   -3.588118   -2.214000
H       4.105185   -1.040246   -5.914715
H       2.659297   -0.037387   -6.070100
H       3.939070    0.424819   -4.940720
