19

C      -0.045840    1.548010    0.044574
C       0.108560    0.043264    0.028685
O       0.703960   -0.336611   -1.185783
C       0.732668   -1.746201   -1.328785
C       1.347424   -2.434004   -0.125311
O       2.785253   -2.349506   -0.053324
C       2.724644   -1.927628    1.326928
C       1.208264   -1.696204    1.232100
O       0.918810   -0.314812    1.130560
H       0.937019    2.013274   -0.061380
H      -0.683018    1.866305   -0.783326
H      -0.491889    1.867383    0.988934
H      -0.873145   -0.462762    0.118908
H      -0.290827   -2.131252   -1.476055
H       1.319302   -1.968214   -2.224767
H       1.014150   -3.480999   -0.079194
H       3.024014   -2.730223    2.013598
H       3.313274   -1.025657    1.516303
H       0.571881   -2.165585    1.990990
