15

O      -0.022716    1.400597   -0.176548
C       0.022465    0.014544   -0.016864
C       0.380860   -0.577846    1.401633
C      -0.978226   -1.265377    1.415625
N      -1.998337   -0.194189    1.242282
C      -1.336417   -0.711709    0.048962
C      -1.344012   -2.599891    1.898640
O      -0.592875   -3.354532    2.467646
H      -0.688657    1.722464    0.445056
H       0.669846   -0.382892   -0.800640
H       1.212559   -1.283010    1.375212
H       0.538513    0.159507    2.191210
H      -2.929091   -0.607226    1.306506
H      -1.900978   -1.177392   -0.750711
H      -2.400546   -2.884907    1.673252
