20

C      -0.362192    1.428005    0.065791
N       0.041159    0.034333    0.074280
C       1.060058   -0.430267   -0.908644
C       1.883010   -1.041506    0.236252
C       2.533754   -2.398921    0.202600
C       3.826987   -2.381984   -0.592164
O       4.089645   -3.132707   -1.495226
C       2.261586    0.067570    1.194364
C       0.847247   -0.460644    1.185469
H       0.472973    2.145576    0.153746
H      -0.897218    1.645432   -0.864455
H      -1.051079    1.608893    0.897575
H       0.645955   -1.161248   -1.611869
H       1.559891    0.366319   -1.476830
H       2.786303   -2.705983    1.227816
H       1.873314   -3.159687   -0.225522
H       4.544359   -1.590243   -0.273720
H       2.858614   -0.241607    2.047584
H       2.493302    1.063412    0.826038
H       0.378495   -0.896259    2.062522
