19

C      -0.015381    1.655519   -0.011098
C       1.505558    1.358932    0.010728
C       1.145709    0.115047    0.918473
C      -0.077624    0.103619   -0.025172
O      -1.280856   -0.604270   -0.014524
C      -1.593638   -0.817027   -1.408067
O      -0.566505   -0.247325   -2.208739
C       0.566036   -0.278574   -1.348004
C       1.690109    0.773676   -1.423269
H      -0.390068    2.066654    0.928455
H      -0.424466    2.197521   -0.866848
H       2.227455    2.098140    0.353856
H       1.808662   -0.754803    0.912522
H       0.921988    0.421580    1.941734
H      -1.669600   -1.903015   -1.569230
H      -2.537978   -0.326769   -1.667342
H       0.968154   -1.302433   -1.313921
H       1.515814    1.531047   -2.191865
H       2.668823    0.320294   -1.598087
