19

C       0.067126    1.488815    0.156688
C      -0.045700   -0.030167   -0.068315
C       0.662141   -0.517543   -1.291572
N       0.083550   -0.815009   -2.430774
C       1.091930   -1.185070   -3.299002
C       2.293971   -1.106005   -2.653123
O       3.586230   -1.347698   -2.993795
N       2.034540   -0.684010   -1.370898
C       3.038937   -0.463165   -0.349407
H       1.106123    1.801706    0.304176
H      -0.325964    2.032440   -0.707069
H      -0.500648    1.792867    1.041747
H       0.312489   -0.561136    0.823581
H      -1.096266   -0.304428   -0.195604
H       0.893747   -1.487075   -4.315959
H       3.599917   -1.710502   -3.884585
H       3.412635    0.566724   -0.362925
H       2.615408   -0.670175    0.635074
H       3.879204   -1.137838   -0.521626
