17

O      -0.067956    1.420503    0.149115
C      -0.051655   -0.014539    0.112247
C       0.904850   -0.601319    1.163620
C       2.244659   -0.669774    0.360094
N       1.871836   -0.861017   -1.064890
C       0.644335   -0.541753   -1.142504
N      -0.305650   -0.730260   -2.128031
C      -1.545416   -0.823813   -1.442720
C      -1.465883   -0.470888   -0.150804
H       0.845275    1.729705    0.123685
H       0.955470    0.010267    2.067662
H       0.597464   -1.613525    1.442474
H       2.847114    0.241460    0.480899
H       2.879471   -1.502614    0.675880
H      -0.101449   -1.333124   -2.911262
H      -2.416674   -1.135692   -2.003030
H      -2.297682   -0.368834    0.529400
