16

N       0.577742    1.221063    0.309278
C       0.359192   -0.130208   -0.140334
C      -1.060527   -0.742285    0.019513
O      -1.052071   -1.124677   -1.391430
C       0.145433   -0.465716   -1.613330
N       0.752932   -0.207770   -2.676652
C      -1.157146   -1.972006    0.919969
N      -2.255429   -2.013091    1.721900
O      -0.293918   -2.826004    0.917646
H       1.570716    1.423232    0.340930
H       0.168285    1.886867   -0.339114
H       1.095452   -0.803031    0.305347
H      -1.843577   -0.000055    0.204711
H       0.265926   -0.578843   -3.494271
H      -2.997364   -1.339271    1.652918
H      -2.383619   -2.814938    2.318207
