22

C      -0.145442    1.561683    0.038710
C       0.064917    0.052056    0.004906
C       1.169236   -0.549859   -0.930485
C       1.779908   -1.278092    0.276138
C       2.349040   -2.667775    0.238999
C       2.181747   -0.247068    1.298458
C       0.729334   -0.647813    1.206317
C      -0.025623   -1.229499    2.368449
H       0.786500    2.096324    0.249577
H      -0.524756    1.926325   -0.922548
H      -0.871887    1.843422    0.809376
H      -0.892357   -0.437220   -0.209128
H       0.759432   -1.224500   -1.687170
H       1.826670    0.171194   -1.430532
H       3.311130   -2.690607   -0.288297
H       2.521726   -3.056001    1.248591
H       1.676266   -3.363977   -0.275886
H       2.703672   -0.637483    2.167945
H       2.524214    0.739628    0.992536
H      -0.407793   -0.443572    3.032072
H      -0.885014   -1.821793    2.031793
H       0.612419   -1.882615    2.973594
