19

C       0.075572    1.336700   -0.797316
C      -0.019987    0.009673   -0.081642
C       1.116626   -0.928167   -0.113619
O       0.883851   -0.122554    1.050569
C      -1.405388   -0.549779    0.103575
C      -1.911178   -1.081666    1.436251
O      -1.153533   -0.930211    2.600464
C      -2.479761    0.200734    0.880791
O      -2.128058    1.360374    1.564942
H       1.117651    1.652773   -0.892014
H      -0.359586    1.257556   -1.799384
H      -0.482033    2.091397   -0.238146
H       0.941374   -1.994231    0.018213
H       2.015004   -0.667900   -0.670312
H      -1.761300   -1.093629   -0.768950
H      -2.510715   -1.988176    1.430931
H      -0.233575   -0.775681    2.322975
H      -3.487744    0.225186    0.475772
H      -1.748749    1.054546    2.405634
