18

C       0.130785    1.420348    0.038172
N      -0.092345   -0.011386   -0.004673
C      -0.006120   -0.737072    1.252780
C      -0.032440   -0.683524   -1.200157
C       0.111563   -0.008125   -2.441968
N       0.124550   -0.652943   -3.597401
C       0.005514   -1.986349   -3.560974
C      -0.111075   -2.654108   -2.350476
N      -0.125523   -2.022071   -1.178319
H       1.163076    1.701750   -0.220108
H      -0.546625    1.948166   -0.641106
H      -0.072482    1.775504    1.050170
H      -0.615663   -0.230615    2.007619
H      -0.376470   -1.749702    1.107495
H       1.027347   -0.796605    1.626003
H       0.223494    1.069552   -2.488856
H       0.016645   -2.517768   -4.507193
H      -0.190786   -3.738664   -2.316456
