17

C      -0.009479    1.490791    0.083189
C       1.307939    0.764016    0.019228
C       2.022393    0.432292    1.332502
N       1.060491   -0.434941    2.008011
C       0.952477   -1.096470    3.193420
N      -0.150053   -1.815917    3.237274
C      -0.787886   -1.605481    2.031225
C      -0.050573   -0.750900    1.253834
C       0.000371   -0.022540   -0.031140
H      -0.328338    1.923108    1.026426
H      -0.298797    2.057421   -0.795440
H       1.921797    0.881086   -0.865159
H       2.963549   -0.098830    1.150657
H       2.242671    1.320571    1.934284
H       1.692380   -1.023704    3.976267
H      -1.730840   -2.078958    1.805984
H      -0.348633   -0.492433   -0.941899
