15

O       0.055151   -0.005959   -0.391207
C       0.005530    1.171485   -0.117937
C      -1.288154    1.959804    0.065600
N      -1.320959    3.104617   -0.856315
C      -0.240361    4.067638   -0.637569
C       1.118871    3.471868   -0.280617
O       1.241522    2.971652    1.045376
C       1.247849    2.015227   -0.028929
H      -2.135371    1.298545   -0.129182
H      -1.358789    2.333893    1.092993
H      -1.273387    2.756041   -1.808497
H      -0.142932    4.681381   -1.538465
H      -0.524150    4.743133    0.180942
H       2.001346    4.008376   -0.632687
H       2.188831    1.496645   -0.199309
