19

C       0.524209    1.429639    0.119471
O       1.198800    0.226107   -0.263193
C      -0.201096    0.158444    0.001067
C      -0.603328   -0.641469    1.194604
C       0.344696   -0.937271    2.326077
C      -0.186133   -2.064287    1.451091
C      -1.446780   -2.779729    1.904703
C      -2.402263   -1.614390    2.249589
O      -1.971152   -0.485070    1.486663
H       0.774110    1.806021    1.109519
H       0.432593    2.179490   -0.664238
H      -0.828125    0.001629   -0.877566
H       1.381194   -0.662658    2.166447
H      -0.006325   -0.839343    3.348152
H       0.506420   -2.573922    0.791904
H      -1.841457   -3.381265    1.079133
H      -1.299432   -3.444013    2.761793
H      -3.446685   -1.812997    1.994232
H      -2.356765   -1.379111    3.321595
