21

O       0.622246    0.238962    0.900839
C      -0.145523    0.272230   -0.289340
C      -1.471205   -0.443336   -0.145441
C      -2.386639   -0.799375   -1.357394
C      -3.008145   -1.804030   -0.343665
C      -1.574193   -1.953760    0.236392
C      -3.666400   -0.847247    0.669902
C      -2.501718    0.183888    0.814099
O      -1.937798    0.255260    2.126173
H       0.013018    0.432676    1.625624
H      -0.326632    1.310182   -0.624946
H       0.458834   -0.211425   -1.065992
H      -3.029809   -0.016620   -1.773480
H      -1.828222   -1.290562   -2.157878
H      -3.592396   -2.664052   -0.671410
H      -0.926684   -2.572726   -0.388880
H      -1.461367   -2.223405    1.288086
H      -4.589480   -0.397008    0.292052
H      -3.878453   -1.326147    1.630719
H      -2.788660    1.191581    0.483133
H      -2.555594    0.711610    2.705223
