15

C       0.026166    1.550338    0.025655
C       0.009429    0.046240    0.009984
C      -1.165924   -0.670706    0.049062
N      -2.418118   -0.140763    0.141957
O      -1.171273   -2.006529    0.039997
C       0.035271   -2.763414    0.002270
O      -0.063972   -3.957887    0.003235
C       1.214921   -1.927937   -0.038298
N       1.188030   -0.626213   -0.035992
H       1.063431    1.887798   -0.001850
H      -0.489661    1.986150   -0.841265
H      -0.442646    1.962597    0.928206
H      -2.538373    0.821921   -0.126309
H      -3.184114   -0.760999   -0.070934
H       2.170276   -2.441183   -0.075165
