11

F      -0.574580    0.272539   -0.374087
C       0.006057    1.401752    0.045010
F       1.300678    1.133888    0.246112
F      -0.078183    2.302112   -0.950783
C      -0.648963    1.944242    1.272383
C      -1.262918    3.160288    1.440625
N      -1.671652    3.124664    2.726500
N      -1.335731    1.962402    3.324465
N      -0.714012    1.245495    2.439600
H      -1.429527    3.996045    0.783809
H      -2.167984    3.825447    3.254609
