19

C      -0.213715    1.464407    0.030926
C      -0.022776   -0.015058   -0.038168
C       0.114772   -0.796616   -1.103899
C       0.237332   -2.234018   -0.696293
O       0.280600   -2.210604    0.728643
C       0.002089   -0.889314    1.216985
C       1.107846   -0.506581    2.213177
C      -1.313853   -0.862910    1.883230
C      -2.386478   -0.822064    2.424978
H       0.609848    1.951707    0.566676
H      -0.273336    1.902859   -0.968165
H      -1.134395    1.709969    0.572857
H       0.119880   -0.470972   -2.137180
H      -0.615091   -2.838864   -1.046466
H       1.152305   -2.714740   -1.071638
H       2.072100   -0.489729    1.698067
H       0.915426    0.474681    2.655351
H       1.147274   -1.246281    3.016157
H      -3.334861   -0.800434    2.902711
