18

O       3.703921    1.547398   -0.406150
C       3.027551    2.069876    0.446841
C       1.767545    2.871773    0.234342
C       1.324303    3.215391   -1.181992
C      -0.096747    3.787945   -1.233974
C      -1.094392    2.690892   -0.922743
O      -1.539416    2.477684    0.178949
C       2.308135    3.663633   -2.201412
N       1.643853    2.355707   -2.336713
H       3.305970    1.971727    1.519982
H       0.971188    2.321774    0.760498
H       1.878210    3.794076    0.824825
H      -0.212172    4.594280   -0.502475
H      -0.282870    4.174559   -2.240162
H      -1.360123    2.041607   -1.783715
H       2.018180    4.414216   -2.932063
H       3.359373    3.668110   -1.930008
H       2.308900    1.640651   -2.052706
