16

O       0.011506   -0.001827   -0.101484
C      -0.002027    1.197598    0.008037
C      -1.283087    2.044645    0.107091
C      -0.885938    3.362035    0.763539
O      -0.105591    3.020481    1.952488
C       1.082947    3.166609    1.177450
C       0.399654    3.994380    0.084158
N       1.046966    3.194939   -0.958343
C       1.238603    2.082586    0.024283
H      -1.721104    2.191422   -0.888015
H      -2.016234    1.503841    0.710966
H      -1.721153    4.022561    1.003823
H       1.970653    3.423777    1.753409
H       0.423082    5.079811   -0.018475
H       0.495393    2.967042   -1.783240
H       2.164391    1.514613   -0.073646
