20

C       0.016249    1.570656   -0.090851
C       0.067315    0.044258   -0.024410
C      -1.315686   -0.532353    0.280784
C       0.740181   -0.683145   -1.199168
C       2.183893   -0.411676   -1.303796
N       1.739235   -1.407459   -0.307104
C       1.191416   -0.644111    0.856078
C       2.119634    0.226954    1.660560
O       3.284323    0.430691    1.428923
H       0.997588    2.012509   -0.281711
H      -0.654687    1.889695   -0.896280
H      -0.367423    1.994915    0.843792
H      -2.040524   -0.218254   -0.479002
H      -1.296246   -1.626547    0.295591
H      -1.681096   -0.183488    1.252827
H       0.188784   -1.217646   -1.967606
H       2.712045   -0.876327   -2.130849
H       2.613265    0.524753   -0.968626
H       0.735350   -1.346644    1.564619
H       1.619271    0.696704    2.541077
