17

O      -0.093692    0.047586    0.157973
C       0.000691    1.248676    0.020897
C       1.265710    1.958568   -0.149854
C       1.440443    3.282544   -0.252088
C       1.021258    4.627853    0.281221
O       2.393420    4.811950    0.745405
C       2.861807    3.705405   -0.109999
C       3.551916    2.458211    0.468212
C       2.644039    1.297991   -0.063583
H      -0.901780    1.899376    0.018529
H       0.752701    5.378498   -0.472992
H       0.289397    4.641649    1.094848
H       3.366099    4.118189   -0.993168
H       4.601319    2.355982    0.181649
H       3.493013    2.500631    1.560247
H       2.618753    0.432996    0.603476
H       2.988549    0.932568   -1.038593
