22

C      -0.094965    1.569145   -0.001781
C      -0.032960    0.039693    0.001935
C       0.693077   -0.532898   -1.212208
C       0.770741   -2.064385   -1.263390
C       0.782397   -2.355944   -2.772020
C       0.372177   -3.770756   -3.171383
C      -0.159229   -1.254217   -3.279491
O       0.012497   -0.137358   -2.415522
H       0.910171    2.005334    0.021318
H      -0.594497    1.927721   -0.905475
H      -0.642056    1.946080    0.867749
H       0.476608   -0.315660    0.907380
H      -1.048008   -0.376797    0.024503
H       1.711224   -0.109617   -1.247443
H       1.644565   -2.458090   -0.737357
H      -0.124329   -2.504131   -0.803834
H       1.790042   -2.151136   -3.157092
H      -0.627701   -4.010530   -2.791669
H       0.353102   -3.888659   -4.260242
H       1.068901   -4.514286   -2.771280
H       0.058619   -0.943214   -4.307888
H      -1.205721   -1.600652   -3.248736
