20

C       0.059976    1.378310   -0.116706
N       0.033576   -0.059826   -0.297830
C       1.177951   -0.775395    0.252623
C      -1.210233   -0.643945   -0.156475
C      -2.466391   -0.137166    0.028920
C      -3.363993   -1.266069   -0.001306
C      -4.852123   -1.234540    0.153782
C      -2.582564   -2.357039   -0.186216
O      -1.258298   -1.993838   -0.286855
H       1.043697    1.755955   -0.407875
H      -0.691298    1.844655   -0.759880
H      -0.135733    1.686809    0.924538
H       1.242824   -0.693296    1.350627
H       1.112725   -1.830422   -0.012094
H       2.095091   -0.363619   -0.178267
H      -2.732760    0.895381    0.183199
H      -5.324545   -0.631088   -0.630071
H      -5.277030   -2.240907    0.101288
H      -5.146657   -0.797165    1.114958
H      -2.779956   -3.413242   -0.257375
