14

O      -0.100711    0.469319   -1.076682
C      -0.014818    1.295494   -0.201056
N       1.152552    1.696477    0.401466
C       2.419320    1.070866    0.164328
C       2.938645    1.035485   -1.260313
C       3.577500    1.961863   -0.276238
C       2.731823   -0.043296    1.033991
N       2.982662   -0.915816    1.750592
H      -0.882051    1.855188    0.201552
H       1.077128    2.307123    1.201825
H       3.473829    0.142787   -1.558560
H       2.269456    1.439922   -2.007472
H       3.352513    3.019943   -0.342483
H       4.559456    1.718654    0.110889
