18

C       0.037516    1.544849   -0.002977
C       0.035914    0.046661    0.062137
C       1.214640   -0.850857   -0.355607
C       0.639004   -0.977331    1.009061
C       1.296820   -0.921137    2.348128
O       1.926604   -2.144491    2.690337
O      -0.561265   -1.811346    0.914156
C      -1.171836   -0.834442    0.124805
N      -2.351078   -0.744152   -0.287838
H       1.032016    1.947463    0.211226
H      -0.252711    1.885104   -1.002226
H      -0.670325    1.973191    0.712787
H       1.078764   -1.651493   -1.075695
H       2.160139   -0.320278   -0.424601
H       2.083048   -0.159800    2.333037
H       0.554752   -0.624935    3.104572
H       1.242543   -2.822875    2.708185
H      -2.911360   -1.546236    0.005106
