25

C      -0.095567    1.579337    0.078704
C       0.014339    0.052138    0.001886
C       0.740048   -0.480301   -1.243264
C       2.226657   -0.097814   -1.266104
O       2.895287   -0.603829   -2.407911
C       2.858588   -2.017051   -2.473681
C       1.425540   -2.559188   -2.546905
C       1.409643   -4.088381   -2.604453
C       0.622427   -2.009556   -1.357661
H       0.884271    2.059936    0.161164
H      -0.588778    1.984662   -0.811840
H      -0.682018    1.885285    0.950698
H       0.519233   -0.326613    0.901582
H      -0.994683   -0.379394    0.021943
H       0.277702   -0.032876   -2.135299
H       2.362674    0.986486   -1.299281
H       2.712780   -0.470706   -0.345146
H       3.430372   -2.296403   -3.364560
H       3.370813   -2.452098   -1.595286
H       0.980651   -2.165432   -3.471384
H       1.862100   -4.522876   -1.705157
H       0.385257   -4.468510   -2.674986
H       1.965099   -4.462995   -3.471132
H       0.999149   -2.467688   -0.429930
H      -0.431328   -2.303853   -1.441099
