16

C      -0.019850    1.486886    0.052993
C       0.020237   -0.034247   -0.006937
O       1.080050   -0.632297   -0.052638
C      -1.261012   -0.751898   -0.008345
C      -2.533342   -0.216195    0.039235
N      -3.423685   -1.259044    0.016710
C      -2.735890   -2.446250   -0.044290
O      -3.474979   -3.581281   -0.073563
C      -1.395077   -2.182043   -0.061791
H       1.000784    1.870718    0.049668
H      -0.564906    1.894656   -0.805183
H      -0.533852    1.826503    0.958646
H      -2.876150    0.803952    0.086456
H      -4.427108   -1.191408    0.040174
H      -2.876150   -4.333097   -0.115148
H      -0.580710   -2.886459   -0.106435
