14

C      -0.265743    1.463404   -0.041368
C       0.052519   -0.009428    0.102625
O       0.309486   -0.537115    1.148786
C       0.053946   -0.819604   -1.245662
C       0.601576   -2.162903   -1.083725
C       1.065704   -3.262262   -0.961089
C      -1.300206   -0.832908   -1.805891
C      -2.420055   -0.825813   -2.240180
H       0.560305    1.963980   -0.561027
H      -1.165467    1.611069   -0.644224
H      -0.389362    1.908696    0.945966
H       0.699369   -0.251767   -1.934035
H       1.471253   -4.236623   -0.842854
H      -3.407025   -0.835364   -2.632679
