21

C       0.019726    1.534156    0.012155
C      -0.050459    0.000961   -0.013430
C      -1.516134   -0.462135   -0.078348
C       0.716420   -0.527486   -1.240047
O       0.722948   -1.943858   -1.297323
C       1.423683   -2.536813   -0.220291
C       0.923059   -2.070917    1.148339
O       0.823626   -2.831475    2.081396
C       0.634584   -0.581087    1.248161
H       1.056699    1.888141    0.028621
H      -0.469999    1.965813   -0.867568
H      -0.482738    1.931849    0.900111
H      -2.019426   -0.034988   -0.952385
H      -1.584895   -1.550598   -0.154435
H      -2.065209   -0.145249    0.814239
H       0.239486   -0.192252   -2.166382
H       1.751158   -0.141640   -1.231141
H       1.301633   -3.618673   -0.298765
H       2.503716   -2.303344   -0.280925
H       1.611935   -0.091556    1.378147
H       0.057088   -0.392975    2.157960
