20

C      -0.079964    1.529644    0.073451
C       0.032253    0.019423    0.020397
C      -1.160572   -0.644784   -0.649402
C       1.369387   -0.686417   -0.234504
N       2.593324    0.057983   -0.055695
C       2.596497    0.412220    1.165723
O       1.574602    0.021093    1.967992
C       0.696016   -0.757467    1.137376
C       0.131434   -1.930487    1.886821
H       0.808696    2.011359    0.482122
H      -0.240118    1.930952   -0.933161
H      -0.934773    1.826189    0.691747
H      -1.311098   -0.219682   -1.647945
H      -1.027060   -1.723126   -0.770769
H      -2.080679   -0.483464   -0.076000
H       1.400982   -1.500582   -0.950473
H       3.354828    1.011541    1.655329
H      -0.493294   -1.595643    2.721977
H      -0.482760   -2.555417    1.236288
H       0.938499   -2.547919    2.293094
