22

O      -0.019980    1.425324   -0.359452
C       0.061254    0.035974   -0.076371
C      -1.352856   -0.527530   -0.072714
C      -1.395572   -2.028285    0.247622
C      -2.794179   -2.574919    0.238287
C      -3.884537   -2.308630    1.296664
C      -4.437346   -3.752312    1.049839
C      -3.339269   -3.957694   -0.002119
N      -3.405045   -2.931697   -1.040896
H       0.873721    1.778801   -0.387884
H       0.668099   -0.490141   -0.831632
H       0.536282   -0.143146    0.902914
H      -1.946364    0.034239    0.659087
H      -1.807107   -0.348629   -1.053673
H      -0.802265   -2.582220   -0.489220
H      -0.941359   -2.211875    1.230990
H      -3.484816   -2.187767    2.307028
H      -4.556379   -1.469289    1.086866
H      -4.325658   -4.393759    1.927386
H      -5.465948   -3.840335    0.683073
H      -2.829252   -4.885621   -0.237973
H      -4.344533   -2.554307   -1.157464
