22

C      -0.078260    1.407728    0.073257
O      -0.155330    0.003452   -0.061753
C       0.577583   -0.546684   -1.143969
C       0.080802   -0.040309   -2.498222
C       2.133512   -0.575943   -1.040189
N       2.161156   -2.075498   -1.180838
C       1.451524   -2.640857   -0.013039
C       1.570617   -2.144256    1.410715
C       0.628878   -2.071181   -1.101604
H       0.962470    1.764879    0.078456
H      -0.621853    1.938265   -0.720307
H      -0.536742    1.658369    1.033022
H       0.289847    1.024794   -2.635895
H       0.576168   -0.583328   -3.307743
H      -0.999463   -0.196601   -2.584897
H       2.647478   -0.114412   -1.885872
H       2.568068   -0.201015   -0.109500
H       1.510221   -3.727268   -0.078160
H       1.310554   -1.093058    1.518418
H       0.885909   -2.715372    2.046208
H       2.586761   -2.308797    1.787134
H       0.028086   -2.698196   -1.755260
