15

O       0.058044    1.435205   -0.008367
C       0.076225    0.018247    0.007610
C       0.612835   -0.521997    1.319004
C      -0.316913   -1.298909    1.876091
N      -1.485568   -1.373472    1.093948
C      -1.384300   -0.513554    0.014295
N      -2.238848   -0.100953   -0.826595
C       0.820237   -0.528191   -1.135996
C       1.440169   -0.968774   -2.066675
H      -0.604386    1.675347   -0.673201
H       1.616038   -0.345230    1.670900
H      -0.265611   -1.871770    2.791436
H      -2.374375   -1.668334    1.464590
H      -3.172814   -0.478875   -0.665383
H       1.982670   -1.351780   -2.895551
