18

C       0.008468    1.535985    0.065964
C      -0.046424    0.042054    0.057533
N       1.084380   -0.774442   -0.300118
C       0.567653   -0.966305    1.068324
C       1.475715   -0.814421    2.247125
C      -0.747316   -1.670055    1.030860
O      -1.355474   -2.319009    1.844175
C      -1.319893   -0.816666   -0.138117
O      -2.542872   -0.234402    0.221227
H       0.950538    1.890677    0.491460
H      -0.070678    1.926024   -0.955015
H      -0.827328    1.935819    0.645797
H       0.844289   -1.538064   -0.932302
H       2.141982    0.041205    2.109179
H       0.896200   -0.675219    3.164168
H       2.099648   -1.705545    2.373510
H      -1.380736   -1.265485   -1.139989
H      -2.911038   -0.771456    0.935986
