16

C       0.015903    1.569814    0.022793
C       0.031942    0.030878    0.024650
C       0.730670   -0.489011    1.195478
C       1.288045   -0.895629    2.178955
C      -1.431309   -0.547522   -0.028333
C      -2.175968   -0.067632   -1.193003
C      -2.775527    0.332492   -2.152821
C      -1.417247   -2.019342   -0.009839
N      -1.407486   -3.173896   -0.002202
H       1.039755    1.949571    0.039427
H      -0.487057    1.947403   -0.869902
H      -0.500989    1.951842    0.908288
H       0.541039   -0.319855   -0.880811
H       1.790460   -1.273046    3.035427
H      -1.940701   -0.216491    0.886609
H      -3.314709    0.678369   -3.000543
