21

C       0.074534    1.501345   -0.077132
C      -0.016705    0.002548    0.208739
O       0.463723   -0.306135    1.517779
C      -1.426894   -0.546276    0.011711
C      -1.967587   -0.643515   -1.434498
O      -2.139123   -2.072138   -1.326130
C      -1.601014   -2.065015    0.000599
C      -0.689312   -3.143846    0.486277
C      -2.098350   -2.996824    1.051259
H       1.094640    1.856617    0.090925
H      -0.205932    1.729042   -1.110725
H      -0.598175    2.064594    0.582154
H       0.662893   -0.536190   -0.462472
H      -0.066993    0.192032    2.149761
H      -2.116660   -0.037297    0.695962
H      -2.914961   -0.130718   -1.633712
H      -1.244663   -0.379206   -2.217742
H      -0.510945   -3.973779   -0.189144
H       0.147271   -2.858329    1.112877
H      -2.214326   -2.625032    2.064607
H      -2.838542   -3.728821    0.745881
