17

N       0.622881    0.304032   -0.811743
C      -0.064658    0.077037    0.338239
O       0.137188    0.670693    1.380423
C      -1.187463   -0.976201    0.214183
C      -2.325988   -0.531256   -0.691688
C      -2.628341   -1.438797   -1.622776
C      -1.714343   -2.613583   -1.526844
N      -0.289587   -2.250847   -1.792902
C      -0.788909   -2.325014   -0.398097
H       1.419233    0.918614   -0.763771
H       0.512542   -0.337783   -1.587999
H      -1.540236   -1.118886    1.240638
H      -2.795087    0.438604   -0.574598
H      -3.401457   -1.344358   -2.375223
H      -2.040595   -3.615348   -1.783295
H       0.241891   -3.097529   -1.986646
H      -0.394258   -3.102646    0.245374
