21

C       0.041766    1.582466    0.070298
C       0.108546    0.083619   -0.019086
C      -0.927766   -0.814741    0.605332
C       0.515456   -0.848833    1.094975
C       1.471228   -1.866404    0.495861
C       0.952790   -3.302196    0.180384
C       0.760982   -2.903306   -1.313690
C       1.445779   -1.534564   -1.028665
O       0.681053   -0.356702   -1.234350
H       1.040821    2.021107   -0.019442
H      -0.580786    1.990382   -0.733004
H      -0.391638    1.892692    1.025236
H      -1.655813   -0.358671    1.268969
H      -1.315228   -1.646057    0.027658
H       0.721790   -0.469222    2.089394
H       2.441723   -1.817273    0.994416
H       1.712872   -4.073065    0.327182
H       0.051888   -3.603272    0.719698
H       1.274182   -3.535692   -2.042289
H      -0.278775   -2.791544   -1.629311
H       2.409538   -1.407314   -1.531420
