21

C       0.005731    1.067020   -0.614830
O      -0.142922    0.035442    0.353063
C      -1.330272   -0.671497    0.212874
C      -1.397683   -1.867848   -0.734327
C      -0.238354   -2.245621   -1.624801
O      -0.206159   -1.496328   -2.838397
C      -1.379197   -2.070761    0.765124
C      -0.188902   -2.652199    1.493251
O      -2.625489   -2.501793    1.257282
H       0.966651    1.548649   -0.419112
H      -0.006798    0.660002   -1.632565
H      -0.793126    1.817377   -0.516205
H      -2.238211   -0.073808    0.312377
H      -2.378849   -2.045454   -1.171096
H       0.713260   -2.034519   -1.132801
H      -0.268071   -3.324910   -1.839237
H      -1.044759   -1.634479   -3.290613
H       0.749740   -2.224811    1.138410
H      -0.262794   -2.424247    2.563799
H      -0.159210   -3.740540    1.382689
H      -2.704182   -2.189657    2.166458
