19

C       0.218836    1.496306    0.222399
C      -0.281774    0.112800   -0.231573
C       0.429998   -0.396156   -1.400436
C       1.035214   -0.771180   -2.373243
C       1.758223   -1.288042   -3.527395
C       2.026126   -2.821038   -3.382609
N       0.841580   -3.657577   -3.210135
C       2.793363   -3.288715   -4.546738
N       3.392745   -3.616141   -5.478370
H       1.279210    1.459006    0.485748
H       0.094450    2.235077   -0.573769
H      -0.342953    1.834299    1.097918
H      -0.180088   -0.602753    0.594341
H      -1.355269    0.165103   -0.453726
H       1.187422   -1.119258   -4.449258
H       2.714620   -0.765475   -3.651708
H       2.657755   -2.962261   -2.497208
H       0.315948   -3.296964   -2.417894
H       0.238554   -3.574314   -4.024495
