19

O       0.349727    0.123933   -0.277127
C       0.390384    1.315346   -0.343069
O       0.875002    2.085195    0.648011
C       0.933264    3.504358    0.433555
C       2.347195    3.943292    0.173508
C       3.263347    3.540910   -1.024562
C       4.107714    4.511952   -0.150393
C       2.839518    5.407580   -0.038392
C       3.587934    3.737432    1.094506
H       0.030222    1.906866   -1.208429
H       0.278294    3.784832   -0.402816
H       0.539562    3.968703    1.343168
H       3.592999    2.499443   -1.059963
H       2.964549    3.903590   -2.012620
H       5.128244    4.842948   -0.339972
H       2.507919    5.908783   -0.952445
H       2.781239    6.072670    0.827918
H       3.584580    4.279262    2.044586
H       3.934723    2.709038    1.218401
