20

O       0.054640    1.368942    0.153808
C       0.020705   -0.023055    0.028379
C      -1.327685   -0.679128    0.020094
C      -2.598160    0.163483   -0.073613
C      -3.298131   -0.106953   -1.402019
C      -3.428996    0.945333   -2.444316
N      -2.462005   -0.140122   -2.611718
C      -1.038843    0.176155   -2.371788
C      -0.477861   -0.675877   -1.245680
H       0.810245    1.696590   -0.345505
H       0.816991   -0.539178    0.564244
H      -1.413802   -1.616350    0.560041
H      -3.270781   -0.070890    0.755629
H      -2.338586    1.220772    0.019335
H      -4.040361   -0.903368   -1.376544
H      -4.264015    0.946431   -3.140628
H      -3.044536    1.935595   -2.199413
H      -0.496045   -0.019042   -3.301450
H      -0.897256    1.239375   -2.130402
H      -0.003415   -1.607028   -1.537850
