20

C      -0.038704    1.544479    0.081515
C      -0.024507    0.042184   -0.009672
C      -0.017580   -0.616061   -1.173468
C       0.018629   -2.115763   -1.314194
C       0.437452   -2.808865   -0.012275
C      -0.298519   -2.187727    1.178068
C       0.024375   -0.693784    1.316038
O       1.288896   -0.474372    1.960621
H       0.794656    1.897916    0.698754
H       0.031188    2.013288   -0.903693
H      -0.957784    1.901121    0.564865
H      -0.051243   -0.044125   -2.099819
H      -0.975298   -2.474265   -1.624576
H       0.694296   -2.393468   -2.132898
H       0.247211   -3.885230   -0.070678
H       1.520911   -2.694652    0.129455
H      -1.381354   -2.304760    1.037824
H      -0.034294   -2.686151    2.115816
H      -0.697469   -0.238070    2.005114
H       1.974835   -0.698294    1.322343
