23

C       0.004842    1.583846   -0.098402
C       0.061579    0.055906   -0.002324
C       0.716129   -0.456966    1.295156
C      -0.145851   -0.112390    2.492924
O       0.222629    0.470013    3.480385
C       0.919671   -1.978256    1.264738
C       1.944780   -2.573778    0.254700
C       2.380927   -3.580482    1.353683
C       1.719946   -2.658817    2.412908
H       1.010029    2.017392   -0.066695
H      -0.468314    1.902198   -1.032137
H      -0.564452    2.019663    0.729585
H      -0.952276   -0.360755   -0.078781
H       0.619076   -0.348629   -0.854836
H       1.687626    0.030461    1.444254
H      -1.200744   -0.473043    2.402741
H      -0.051916   -2.473475    1.141511
H       1.561211   -2.976113   -0.685892
H       2.738850   -1.854690    0.027508
H       1.854781   -4.534649    1.259840
H       3.449104   -3.784014    1.455574
H       2.439847   -1.964933    2.857701
H       1.152561   -3.128679    3.219627
