16

C       0.002729    1.399899    0.125323
O       1.262593    1.997231   -0.034208
C       2.160181    1.786566    1.045727
C       2.847810    0.429655    0.971905
O       2.786352   -0.404148    2.135329
C       2.048855   -0.801708    0.973173
C       0.529581   -0.726541    1.048323
O      -0.029567    0.005742   -0.032148
H      -0.409052    1.668104    1.116196
H      -0.624529    1.806066   -0.670886
H       2.898436    2.591394    0.989046
H       1.640312    1.867136    2.011569
H       3.810040    0.407922    0.461038
H       2.460299   -1.672319    0.463179
H       0.095360   -1.728754    0.993515
H       0.245089   -0.283210    2.013791
