13

O       0.081014    1.369681   -0.065038
C       0.058877    0.014402   -0.051518
C       0.034394   -0.696116   -1.247401
C       0.012101   -2.083921   -1.197970
F      -0.011373   -2.759864   -2.351821
C       0.013254   -2.790771   -0.003992
C       0.037856   -2.073530    1.192363
C       0.060119   -0.694154    1.153040
F       0.084301    0.037259    2.288229
H       0.095840    1.672946    0.851489
H       0.032854   -0.172945   -2.194942
H      -0.004677   -3.872722   -0.016542
H       0.039872   -2.575701    2.152401
