18

C      -0.132809    1.543104    0.068871
C       0.166997    0.084296   -0.027026
O      -0.704791   -0.844404    0.644841
C       0.709969   -0.893059    0.940778
C       1.323469   -1.720127   -0.163133
C       2.576830   -2.497834   -0.164054
N       1.268608   -3.167065   -0.318267
C       0.766119   -0.712634   -1.216054
O      -0.110877   -1.184867   -2.191117
H       0.742144    2.137416   -0.213198
H      -0.951680    1.808715   -0.608420
H      -0.428911    1.810696    1.086640
H       1.005810   -0.770413    1.977001
H       3.204093   -2.511891   -1.051563
H       3.116059   -2.609126    0.774207
H       0.987176   -3.607388    0.554992
H       1.562282   -0.162773   -1.727535
H      -0.745176   -1.751573   -1.734983
