23

C       0.626995    1.596668   -0.394554
C       0.065418    0.208917   -0.088516
C       0.476682   -0.955470   -1.046440
C       1.108916   -1.720855    0.141717
C       0.818127   -3.197880    0.294192
C       2.568652   -1.255375    0.454780
C       2.025906   -0.431721    1.656989
O       2.562525    0.827393    1.980757
C       0.578224   -0.613725    1.141865
H       1.698440    1.569220   -0.629256
H       0.133853    2.019258   -1.277128
H       0.471028    2.291417    0.437415
H      -1.023519    0.296266   -0.028278
H      -0.384191   -1.472120   -1.481846
H       1.161817   -0.692163   -1.859868
H       1.299861   -3.777031   -0.503725
H       1.188368   -3.585633    1.250225
H      -0.257917   -3.399855    0.245935
H       3.287549   -2.040857    0.702833
H       3.002144   -0.636047   -0.337589
H       2.131230   -1.022070    2.573346
H       2.526564    1.382001    1.196936
H      -0.182430   -0.808740    1.901288
