22

C      -0.149792    1.529898    0.006300
C       0.049562    0.010646   -0.012108
C       0.753287   -0.480646   -1.281579
C       1.045377   -1.973742   -1.168911
C       1.976585   -2.228128    0.010724
N       1.550776   -1.550579    1.231144
C       2.228529   -1.978863    2.443925
C       0.729991   -0.449507    1.288462
O       0.502360    0.128954    2.340251
H       0.811682    2.051173   -0.056637
H      -0.760849    1.844063   -0.845762
H      -0.637040    1.838818    0.931474
H      -0.945124   -0.459830    0.020293
H       0.131698   -0.264158   -2.157299
H       1.693240    0.071227   -1.421140
H       0.106679   -2.523235   -1.025269
H       1.511682   -2.365217   -2.078748
H       2.035691   -3.303043    0.223994
H       2.999645   -1.907796   -0.247552
H       3.313607   -1.829184    2.360260
H       1.847488   -1.390697    3.276486
H       2.045415   -3.044578    2.626913
