19

C      -0.190730    1.611473   -0.157314
C       0.010475    0.100372   -0.060319
C      -1.173315   -0.644206    0.668550
C      -0.345670   -0.615989    2.009145
C       0.842663   -0.416721    1.098304
C       1.951581   -1.063325    0.724186
C       2.013449   -1.055736   -0.770703
O       0.933262   -1.854790   -1.332951
C       0.752960   -0.447170   -1.272532
H       0.742518    2.115642   -0.429858
H      -0.941417    1.851585   -0.919401
H      -0.531767    2.033656    0.792764
H      -2.136235   -0.127588    0.676270
H      -1.286799   -1.662443    0.294433
H      -0.600580    0.257435    2.616828
H      -0.355550   -1.507133    2.639400
H       2.576557   -1.699143    1.339741
H       2.934833   -1.090114   -1.344100
H       0.693130    0.058741   -2.234063
