20

C      -0.043359    1.605013    0.049721
C      -0.002661    0.075187    0.012554
C       0.701961   -0.478875   -1.230235
C       0.741507   -2.009479   -1.265654
C       1.447722   -2.554784   -2.510944
C       1.489127   -4.067143   -2.551162
F       0.254912   -4.600791   -2.550931
F       2.114432   -4.511073   -3.653933
F       2.140419   -4.577392   -1.491202
H       0.967077    2.028755    0.045098
H      -0.574151    2.008761   -0.819648
H      -0.552008    1.968544    0.947877
H       0.503067   -0.300927    0.911617
H      -1.025934   -0.320752    0.053571
H       0.196985   -0.104921   -2.131894
H       1.727170   -0.085243   -1.273088
H       1.251549   -2.388002   -0.372075
H      -0.279383   -2.407652   -1.231687
H       0.945353   -2.221591   -3.425130
H       2.483299   -2.202417   -2.561361
