21

C      -0.112842    1.571429   -0.088469
C      -0.042238    0.035478   -0.045265
C       0.778793   -0.507243    1.146752
C       2.242591   -0.077353    1.160580
C       2.642206    1.287325    1.774891
O       3.578977    0.661920    2.671459
C       3.138995   -0.653874    2.281171
C      -1.447602   -0.528644    0.044281
O      -1.932410   -1.315408   -0.726335
H       0.883546    2.008687   -0.192199
H      -0.712543    1.911975   -0.938086
H      -0.564111    1.974409    0.825261
H       0.389707   -0.343430   -0.978314
H       0.303388   -0.207102    2.091294
H       0.740736   -1.604204    1.118329
H       2.686748   -0.225604    0.171720
H       3.129374    2.010406    1.109818
H       1.834071    1.796058    2.319377
H       2.586207   -1.157192    3.087568
H       3.972576   -1.293844    1.969888
H      -2.029399   -0.152521    0.921211
