21

C       0.089093    1.600719    0.070492
C      -0.063149    0.078982   -0.022817
C       0.642815   -0.518926   -1.233825
C       2.189445   -0.575814   -1.197711
O       2.569610   -1.423501   -0.107446
C       2.190090   -2.038630   -1.351188
C       0.677252   -2.069407   -1.398607
C      -0.240745   -3.112803   -0.840438
C      -0.159549   -2.888393   -2.335026
H       1.142615    1.889611    0.151135
H      -0.324650    2.099122   -0.813676
H      -0.429407    1.997419    0.948659
H       0.338648   -0.395882    0.878592
H      -1.129094   -0.180611   -0.064880
H       0.300012   -0.044713   -2.161702
H       2.908902    0.166058   -1.524663
H       2.907960   -2.705950   -1.815252
H       0.196938   -4.015901   -0.427957
H      -1.135341   -2.777418   -0.325740
H      -0.996830   -2.404190   -2.827950
H       0.335114   -3.641957   -2.940271
