20

C      -0.234641    1.480630   -0.095659
C       0.044705   -0.014554   -0.022325
C       1.340178   -0.509903   -0.701064
O       1.899193   -0.953147    0.554203
C       0.672088   -0.608502    1.275662
C       0.970407    0.310020    2.447940
C       0.031862   -1.924758    1.731380
O       0.947020   -2.684415    2.494070
H       0.645045    2.073450    0.172696
H      -0.525357    1.762877   -1.113351
H      -1.052280    1.769742    0.572716
H      -0.845522   -0.568492   -0.336296
H       1.222341   -1.334493   -1.414831
H       1.957447    0.270820   -1.163160
H       1.580403    1.161904    2.140343
H       0.041859    0.684525    2.892260
H       1.511989   -0.250508    3.214514
H      -0.841757   -1.733687    2.365121
H      -0.310325   -2.485399    0.846161
H       1.752419   -2.716494    1.960499
