19

O      -0.224857    0.017202   -0.062576
C      -0.069497    1.208186   -0.127840
C       1.270273    1.910685   -0.122260
C       1.401443    2.961154   -1.256319
C       2.600808    3.775155   -1.058083
C       3.600667    4.421257   -0.892118
C       1.399483    2.301942   -2.631583
C       0.097977    2.007041   -3.336754
C       1.016210    3.087653   -3.854376
H      -0.945911    1.898655   -0.171736
H       1.362648    2.426115    0.843363
H       2.067392    1.165116   -0.182502
H       0.526880    3.626972   -1.200659
H       4.477677    5.003013   -0.750480
H       2.193215    1.571151   -2.759100
H       0.015211    1.080232   -3.892634
H      -0.826452    2.319966   -2.862098
H       0.710304    4.119635   -3.716554
H       1.563496    2.907763   -4.772537
