18

C      -0.278041    1.238430    0.052501
O       0.259203   -0.076062   -0.061701
C       0.831438   -0.537086    1.079908
C       2.152780   -0.198855    1.848292
C       2.268309   -1.622956    2.262157
N       1.539249   -0.646959    3.147515
C       0.250768   -0.991971    2.405381
C       0.962564   -1.996339    1.505242
C       0.480737   -3.232055    0.823596
H       0.507891    1.972092    0.274007
H      -0.731617    1.478342   -0.910985
H      -1.039027    1.286462    0.841490
H       2.886793    0.597569    1.799471
H       3.116657   -2.203529    2.609107
H      -0.740491   -0.981125    2.841964
H      -0.503557   -3.059235    0.376410
H       1.159527   -3.534767    0.017986
H       0.391205   -4.070457    1.523676
