16

C      -0.039149    1.575136    0.149738
C       0.028955    0.069503    0.006905
C       0.647704   -0.635014   -1.201716
C       1.295723    0.123348   -2.303692
O       1.211756   -0.205618   -3.461775
C       1.326135   -0.662510    0.188151
O       2.448354    0.131420    0.410801
C       1.328909   -1.930421    0.886918
N       1.355032   -2.948804    1.434556
H       0.904912    2.057753   -0.103544
H      -0.825374    1.983355   -0.492296
H      -0.278166    1.837166    1.184583
H      -0.836339   -0.456856    0.397644
H       0.171015   -1.552061   -1.529762
H       1.873354    1.018496   -1.999448
H       3.231010   -0.344382    0.108184
