17

C      -0.027391    1.514036    0.022731
C      -0.009429    0.015272    0.014523
C      -0.024596   -0.800706   -1.094054
N       0.001356   -2.105051   -0.668173
C       0.032821   -2.142464    0.702801
C       0.027569   -0.845579    1.158401
C       0.055899   -0.417187    2.591062
O       0.077442   -1.573152    3.416973
H       0.861862    1.933453    0.510475
H      -0.060413    1.913352   -0.995220
H      -0.898329    1.911837    0.559147
H      -0.051668   -0.554183   -2.143950
H      -0.003708   -2.910409   -1.267626
H       0.056024   -3.070874    1.247134
H       0.940462    0.216569    2.779919
H      -0.824713    0.210104    2.816394
H       0.102611   -1.282641    4.332638
