20

C      -0.136988    1.526907    0.113319
C      -0.007889   -0.004961   -0.004379
C      -1.396906   -0.643200   -0.082378
N       0.724376   -0.346005   -1.241002
C       2.140623    0.007988   -1.243749
C       2.864943   -0.291467    0.039863
C       2.207698   -0.565763    1.172563
C       0.731430   -0.510794    1.255215
O       0.143709   -0.798972    2.280169
H       0.837018    2.015278    0.214238
H      -0.628633    1.920873   -0.780750
H      -0.731270    1.785712    0.993411
H      -1.951930   -0.230393   -0.928809
H      -1.322405   -1.728630   -0.214426
H      -1.946832   -0.463516    0.842235
H       0.644863   -1.348119   -1.385894
H       2.624822   -0.515640   -2.076371
H       2.256177    1.079113   -1.473486
H       3.953323   -0.261466    0.022681
H       2.719876   -0.804952    2.099684
