23

C      -0.187187    1.514441    0.140601
C       0.084886    0.010455    0.030638
C       0.811538   -0.415913   -1.259817
C       2.290911    0.011450   -1.241692
O       2.907053    0.015229   -2.513289
C       0.658605   -1.947416   -1.449054
C       1.257930   -2.500429   -2.663220
C       1.735280   -2.974007   -3.664784
C       2.296997   -3.555810   -4.877051
H       0.734804    2.103359    0.146540
H      -0.797375    1.864811   -0.698930
H      -0.727690    1.744900    1.063953
H       0.668431   -0.325593    0.899520
H      -0.871579   -0.524149    0.089980
H       0.341504    0.083900   -2.116647
H       2.375334    1.037848   -0.871271
H       2.836731   -0.630363   -0.526273
H       2.797155   -0.867341   -2.888858
H       1.091378   -2.450954   -0.572540
H      -0.410226   -2.197749   -1.440869
H       1.678005   -4.384154   -5.238911
H       2.361894   -2.815337   -5.681682
H       3.305265   -3.947208   -4.703387
