19

O       0.022158    1.414414    0.031481
C       0.006108    0.001712    0.025417
C      -1.389232   -0.609456   -0.216318
C      -1.565069   -0.328474   -1.722773
O      -0.226204   -0.234028   -2.258466
C       0.685770   -0.589718   -1.211871
C       0.815779   -2.114539   -1.079044
O      -0.447071   -2.741876   -0.930485
C      -1.287414   -2.124462    0.032687
H      -0.076435    1.700718   -0.884481
H       0.449678   -0.323485    0.970210
H      -2.163355   -0.154240    0.404950
H      -2.107179   -1.129112   -2.235340
H      -2.079968    0.620893   -1.908357
H       1.654955   -0.135554   -1.438062
H       1.256511   -2.537893   -1.985696
H       1.480279   -2.347008   -0.228864
H      -0.920706   -2.315659    1.055166
H      -2.262311   -2.610279   -0.070995
