17

C      -0.002273    1.552617   -0.108628
C       1.293060    0.792520    0.005825
O       2.036232    0.806414    1.199055
C       1.491679    0.070669    2.253440
C      -0.024643    0.153292    2.613613
O       0.131841   -1.127029    3.322493
C       0.830162   -1.330563    2.042046
C      -0.341573   -0.620323    1.302815
C      -0.001385    0.034643   -0.011442
H      -0.341539    2.113967    0.755295
H      -0.235148    2.009941   -1.063879
H       1.953497    0.765631   -0.853932
H       2.171085    0.135763    3.102546
H      -0.592029    0.939203    3.113323
H       1.283991   -2.304745    1.858886
H      -1.290411   -1.159695    1.325059
H      -0.252821   -0.532846   -0.902097
