17

O      -0.166810    1.431196   -0.020291
C      -0.005282    0.078106   -0.015222
C       0.031275   -0.994327   -1.072455
C       1.289843   -1.629300   -0.497416
C       0.933090   -0.927669    0.853010
C      -0.388039   -1.641397    1.288611
C      -1.035203   -0.997880    0.069047
C       1.941995   -0.557039    1.794976
C       2.790962   -0.219054    2.579168
H       0.599360    1.834386   -0.445313
H      -0.281901   -0.926518   -2.106009
H       1.362154   -2.721539   -0.461726
H       2.199100   -1.212567   -0.937545
H      -0.344902   -2.733821    1.356351
H      -0.776802   -1.223867    2.219889
H      -2.086276   -0.915841   -0.173330
H       3.537348    0.070688    3.276390
