20

N       0.033839    1.233369    0.386307
C       0.032311    0.042508   -0.285177
O       0.987858   -0.319364   -0.952938
C      -1.231060   -0.749175   -0.148573
C      -1.551385   -1.755521   -1.234160
C      -1.174818   -2.253338    0.127332
C       0.119394   -2.996696    0.381683
C       0.010216   -4.481676    0.021598
O       1.193036   -5.203486    0.325943
H       0.888787    1.765273    0.393257
H      -0.689655    1.480074    1.038200
H      -2.066681   -0.222406    0.301848
H      -2.579839   -1.833750   -1.567606
H      -0.799681   -1.830051   -2.012810
H      -2.007110   -2.596423    0.738658
H       0.923080   -2.535239   -0.200524
H       0.399126   -2.917107    1.439558
H      -0.784021   -4.959441    0.607034
H      -0.264737   -4.588146   -1.039970
H       1.909995   -4.812453   -0.183920
