16

O       0.098991    1.439368    0.022154
C       0.054976    0.033206    0.050270
C      -1.397442   -0.508524    0.036085
C      -2.068262   -0.052474   -1.181330
N      -2.537421    0.337912   -2.163327
C      -1.427245   -2.063749    0.154191
O      -0.698385   -2.480015    1.299432
C      -2.796140   -2.575151    0.159824
C      -3.927150   -2.975857    0.222286
H      -0.233507    1.736675   -0.832690
H       0.614100   -0.418271   -0.783255
H       0.523862   -0.285376    0.982235
H      -1.929840   -0.085024    0.895859
H      -0.885193   -2.477020   -0.705039
H      -1.293729   -2.448505    2.056801
H      -4.925408   -3.338827    0.253657
