15

O      -0.005826   -0.037260    0.004664
C      -0.001445    1.167754   -0.047193
N      -1.100056    2.016816   -0.059453
C      -0.629032    3.399274    0.087080
C       0.050741    3.529320    1.465258
O       1.196194    2.669462    1.339641
C       1.182861    2.161545   -0.018336
C       0.625863    3.341691   -0.816298
H      -1.982945    1.700695    0.314451
H      -1.393559    4.138298   -0.147195
H       0.373756    4.556268    1.678408
H      -0.590349    3.179067    2.281845
H       2.157354    1.742463   -0.252539
H       0.383447    3.107568   -1.853675
H       1.255331    4.231309   -0.752898
