17

C      -0.162196    1.582087    0.126300
C       0.008990    0.081815    0.089350
N       1.263881   -0.591248   -0.166058
C       2.491688    0.159522   -0.405433
C       0.724206   -0.665924    1.212852
C       1.321548    0.080133    2.289855
C       1.836506    0.681880    3.194127
C       0.237406   -1.980132    1.591431
N      -0.175908   -3.016977    1.890845
H       0.610567    2.082041    0.711438
H      -0.148116    1.985410   -0.891724
H      -1.132043    1.828470    0.568547
H      -0.839774   -0.452547   -0.335519
H       2.622537    1.048286    0.222927
H       3.340438   -0.508383   -0.237028
H       2.498498    0.462466   -1.456306
H       2.284307    1.208205    4.001221
