21

C      -0.007906    1.504411   -0.026775
C      -0.024659   -0.011829   -0.000973
C      -0.857161   -0.681743    1.075400
C       0.646842   -0.716313    1.157964
O       1.289365   -1.950209    0.993841
C       1.719957   -2.228359   -0.328134
C       0.558843   -2.111334   -1.313226
C       0.070294   -0.657646   -1.371366
O      -1.202538   -0.533454   -2.000344
H       0.914006    1.884803   -0.482890
H      -0.854735    1.882120   -0.608822
H      -0.078761    1.921988    0.982211
H      -1.410946   -0.044190    1.756492
H      -1.345592   -1.619251    0.836305
H       1.141549   -0.094770    1.901828
H       2.538270   -1.550024   -0.623773
H       2.121433   -3.245200   -0.301991
H       0.871486   -2.438352   -2.312723
H      -0.258399   -2.766757   -0.992737
H       0.820261   -0.080859   -1.940428
H      -1.117375   -0.851751   -2.905202
