11

O      -0.056320    0.002686    0.030412
C      -0.049450    1.196825    0.031116
N      -1.019446    2.159704   -0.014002
C      -0.131544    3.321155    0.051795
C       1.066698    2.316267    0.056970
C       1.940825    2.338993    1.210717
N       2.627620    2.362079    2.140250
H      -2.024718    2.081620   -0.052621
H      -0.171577    3.973460   -0.824575
H      -0.227297    3.911438    0.966292
H       1.649494    2.323271   -0.866739
