27

C      -0.100742    1.654651    0.183407
C      -0.022358    0.126236    0.107390
C      -1.376595   -0.562828   -0.081092
C      -2.095967   -0.279042   -1.411827
C      -3.198417   -1.348151   -1.453844
C      -2.588697   -2.625899   -0.788544
C      -3.573764   -3.236369    0.220576
C      -2.229951   -3.677259   -1.850905
C      -1.301235   -2.102561   -0.073324
H       0.887967    2.094058    0.349412
H      -0.502096    2.083860   -0.740305
H      -0.749107    1.976614    1.006316
H       0.642402   -0.167437   -0.717104
H       0.446780   -0.255689    1.023752
H      -2.042153   -0.241442    0.734983
H      -2.489758    0.738414   -1.491821
H      -1.390028   -0.419197   -2.242495
H      -4.060873   -1.003297   -0.871201
H      -3.562710   -1.546585   -2.466794
H      -4.521443   -3.500954   -0.262759
H      -3.165665   -4.147000    0.673970
H      -3.799504   -2.532313    1.029331
H      -1.581094   -3.252840   -2.625219
H      -1.700341   -4.526567   -1.403988
H      -3.128508   -4.066176   -2.343602
H      -0.410394   -2.416863   -0.632467
H      -1.196154   -2.511108    0.937176
