19

C       0.018117    1.770891   -0.035118
C       1.498030    1.487837    0.083586
C       1.049269    0.265551    1.045417
C      -0.042867    0.199831   -0.098729
O      -1.303675   -0.244246   -0.575883
C      -1.187309    0.323360   -1.934634
C       0.350011    0.387785   -2.283546
C       1.678495    0.856355   -1.348115
C       0.920159   -0.375184   -1.187716
H      -0.461658    2.090900    0.893476
H      -0.309003    2.387355   -0.868627
H       2.220838    2.226586    0.428485
H       1.708135   -0.598647    1.153534
H       0.725728    0.635159    2.020011
H      -1.651801   -0.394847   -2.618132
H      -1.737680    1.267386   -1.981075
H       0.621822    0.213512   -3.321058
H       2.604530    0.926782   -1.910865
H       1.232495   -1.412425   -1.116500
