18

C       0.062406    1.536277    0.223597
C       0.015169    0.040583   -0.121233
C      -1.371289   -0.533209   -0.052502
C      -2.058691   -1.017860    1.212238
C      -1.922788   -1.938710    0.042993
O      -2.964944   -1.689033   -0.914540
C      -2.450912   -0.353268   -1.134885
C      -3.456064    0.696876   -0.949802
N      -4.230294    1.540990   -0.796112
H       1.085093    1.918819    0.159423
H      -0.557837    2.123031   -0.461843
H      -0.306391    1.716318    1.238000
H       0.428399   -0.122240   -1.125355
H       0.660148   -0.517831    0.567828
H      -1.373969   -1.203976    2.034442
H      -3.041472   -0.655779    1.500552
H      -1.458978   -2.917484    0.033953
H      -2.023318   -0.273473   -2.141682
