21

C      -0.166247    1.341453   -0.125622
O      -0.218966   -0.066621   -0.201167
C       0.676027   -0.602515   -1.161603
C       0.657702   -2.143155   -1.048531
C       1.377355   -2.600784    0.238738
C      -0.819844   -2.645516   -0.994028
O      -1.678702   -1.986478   -1.898761
C       1.338616   -2.682171   -2.226789
C       1.909279   -3.121433   -3.189526
H       0.832863    1.691060    0.174550
H      -0.420248    1.811607   -1.087964
H      -0.893495    1.655878    0.626587
H       0.371154   -0.302366   -2.173374
H       1.696981   -0.229026   -0.990109
H       0.949935   -2.083255    1.101894
H       1.264559   -3.679274    0.384116
H       2.446469   -2.378403    0.187084
H      -0.838990   -3.708345   -1.250746
H      -1.174612   -2.537968    0.039245
H      -1.827732   -1.109356   -1.527304
H       2.401625   -3.514957   -4.044097
