18

O       0.041815    1.394282    0.353562
C       0.032569    0.000903    0.093663
C      -1.346777   -0.526963   -0.142676
N      -2.224487   -0.932132    0.996278
C      -1.902006   -1.911809   -0.072325
C      -2.955864   -1.602199   -1.145781
O      -4.283316   -1.553103   -0.681234
C      -2.291272   -0.175560   -1.307619
O      -3.153358    0.912530   -1.188132
H      -0.720773    1.600291    0.904269
H       0.647970   -0.143562   -0.802003
H       0.510398   -0.569703    0.910336
H      -1.624289   -1.138089    1.794051
H      -1.417238   -2.852138    0.160322
H      -2.926332   -2.223327   -2.041512
H      -4.204022   -1.319262    0.258044
H      -1.716801   -0.102282   -2.239157
H      -4.016492    0.533228   -0.965578
