15

C      -0.051568    1.578692   -0.031408
C      -0.033537    0.039564    0.005552
C       0.764546   -0.503719    1.228685
C       2.170531   -0.122048    1.206282
C       3.329338    0.195392    1.164044
C      -1.387556   -0.509401    0.016851
C      -2.502908   -0.956789    0.051596
H       0.970758    1.964742   -0.047016
H      -0.577940    1.936256   -0.919692
H      -0.562634    1.978765    0.849782
H       0.476954   -0.319822   -0.897223
H       0.290254   -0.139158    2.148118
H       0.678554   -1.595753    1.249251
H       4.354864    0.469611    1.140715
H      -3.487800   -1.353421    0.066875
