17

C      -0.076735    1.470333   -0.026055
N       0.090454    0.034574   -0.000645
C       0.602920   -0.622736   -1.070725
N       0.660526   -2.039118   -0.926128
C       0.221754   -2.823643    0.102543
O      -0.312561   -2.444157    1.125297
N       1.008753   -0.009270   -2.116697
C       1.566633   -0.756872   -3.221659
H       0.880031    1.972755   -0.200818
H      -0.762747    1.786503   -0.821014
H      -0.476782    1.788403    0.938833
H      -0.273154   -0.525098    0.756316
H       1.072301   -2.523681   -1.707898
H       0.411010   -3.894237   -0.100345
H       2.483232   -1.312792   -2.957573
H       0.858806   -1.477357   -3.667378
H       1.844730   -0.061769   -4.018440
