25

C       0.072362    1.597743   -0.074282
C       0.045852    0.060195    0.027645
C       0.618954   -0.549193   -1.260884
C       0.900196   -2.040242   -1.101603
C       1.930970   -2.246319    0.008168
C       1.611844   -1.470762    1.271379
C       2.368711   -1.976431    2.475715
C       0.735667   -0.452063    1.290401
C       0.312785    0.254647    2.559604
H       1.103629    1.968810   -0.088830
H      -0.411611    1.921467   -1.001963
H      -0.448265    2.082289    0.755378
H      -1.014810   -0.234650    0.099899
H      -0.072113   -0.361376   -2.090901
H       1.556240   -0.033716   -1.514239
H      -0.028949   -2.563786   -0.840862
H       1.256450   -2.475667   -2.041763
H       2.010479   -3.312452    0.260977
H       2.932052   -1.962348   -0.352879
H       3.435590   -2.069157    2.233625
H       2.289344   -1.332652    3.351985
H       2.032690   -2.982824    2.760667
H       0.551071   -0.311574    3.460460
H       0.773943    1.245206    2.657944
H      -0.772238    0.418232    2.557070
