19

C      -0.345879    1.666825    0.269542
C      -0.004441    0.189895    0.148464
C      -1.249467   -0.642435   -0.267187
C      -1.679689   -0.348544   -1.631932
N      -1.979211   -0.105722   -2.721879
N       1.204164   -0.100222   -0.659273
C       1.661472   -1.131938    0.295595
C       0.717804   -0.509994    1.359299
O       1.326085    0.340008    2.294223
H       0.529446    2.240129    0.579984
H      -0.682080    2.062775   -0.694317
H      -1.140843    1.828916    1.004804
H      -1.028688   -1.714019   -0.202710
H      -2.080012   -0.446256    0.420581
H       1.055727   -0.380319   -1.623476
H       1.401309   -2.168243    0.038213
H       2.730472   -1.093025    0.532824
H       0.100442   -1.201007    1.937567
H       1.959601    0.895722    1.826306
