16

C       0.102716    1.446256    0.008328
N       0.119471   -0.010176    0.005259
C      -0.232138   -0.649255    1.265846
C       0.015068   -0.621101   -1.216092
N      -0.026605    0.043734   -2.307413
C      -0.017580   -2.159182   -1.211290
F       0.012823   -2.637793   -2.457288
F       1.027468   -2.687105   -0.553895
F      -1.136667   -2.626007   -0.631837
H       0.679908    1.816043   -0.838534
H      -0.917155    1.846385   -0.079279
H       0.542032    1.800917    0.944153
H      -1.308785   -0.588080    1.479805
H       0.066869   -1.694511    1.279607
H       0.303235   -0.139298    2.071428
H      -0.021663   -0.583775   -3.106702
