17

O       0.506414    1.356895    0.007008
C       0.076362    0.010675   -0.053818
C       0.507250   -0.753384    1.201379
O       0.336019    0.044882    2.379103
C      -0.891897    0.275103    2.934551
O      -0.927953    0.723801    4.050643
C      -2.137698    0.020985    2.172452
C      -2.365117   -0.081469    0.857451
C      -1.432813   -0.108971   -0.314584
H       0.556115    1.604941    0.938249
H       0.590394   -0.439806   -0.912507
H      -0.029837   -1.703252    1.296512
H       1.579982   -0.955078    1.175394
H      -2.991694    0.031394    2.842060
H      -3.412133   -0.176092    0.570720
H      -1.718457    0.685537   -1.016243
H      -1.627150   -1.049443   -0.852486
