23

C       0.323962    1.393586   -0.190433
C      -0.003566   -0.000557    0.317198
O      -1.083075   -0.513541   -0.440607
C      -1.456272   -1.819154   -0.085765
C      -2.248816   -2.056589    1.232356
C      -3.178727   -3.014211    0.434472
C      -2.647649   -2.395783   -0.891596
C      -3.566372   -1.334856   -1.478194
O      -4.718436   -2.006450   -1.975235
H       1.159967    1.819162    0.372695
H       0.597494    1.361296   -1.248915
H      -0.540503    2.054738   -0.080841
H       0.872235   -0.664656    0.219819
H      -0.265983    0.030434    1.386937
H      -0.582891   -2.488776   -0.138842
H      -1.707514   -2.464919    2.088920
H      -2.765274   -1.143926    1.543178
H      -2.892863   -4.062562    0.548491
H      -4.253615   -2.927237    0.600969
H      -2.388349   -3.104304   -1.682990
H      -3.838639   -0.595760   -0.709438
H      -3.039897   -0.791821   -2.275902
H      -5.310855   -1.345812   -2.345200
