20

C       0.089755    1.392278    0.125359
O      -0.161372    0.021446   -0.109850
C       0.586795   -0.528728   -1.155278
C       2.142706   -0.578357   -1.120166
N       2.053484   -1.898815   -1.846796
C       0.695676   -2.066981   -1.208229
C       1.885885   -1.642429   -3.293093
C       0.815086   -0.609114   -3.585854
C       0.181612   -0.064418   -2.548225
H       1.141971    1.572406    0.390200
H      -0.156914    2.018524   -0.744150
H      -0.541400    1.694228    0.964051
H       2.703709    0.204268   -1.636468
H       2.545843   -0.742153   -0.115726
H       0.810419   -2.517256   -0.217956
H      -0.043088   -2.615418   -1.796773
H       2.856323   -1.329079   -3.700523
H       1.644819   -2.594797   -3.783957
H       0.581430   -0.358707   -4.617271
H      -0.622903    0.656697   -2.647765
