21

C      -0.100666    1.632105    0.009575
C       0.004689    0.100998   -0.029414
C       0.687453   -0.423892   -1.302642
C      -0.037371   -0.074044   -2.596986
O       0.623631   -0.758626   -3.651854
C       0.756817   -0.443790    1.215623
O       2.098496    0.035769    1.290334
C       0.024988   -0.180432    2.458488
C      -0.565897    0.069726    3.475669
H       0.885821    2.094556   -0.107903
H      -0.737043    2.008922   -0.795091
H      -0.531153    1.970924    0.956895
H      -1.009785   -0.318130    0.022843
H       1.715115   -0.048694   -1.350121
H       0.757258   -1.517758   -1.254073
H      -1.095303   -0.380039   -2.526581
H      -0.023643    1.013192   -2.766635
H       0.205429   -0.508223   -4.480661
H       0.857111   -1.529619    1.095419
H       2.070704    0.921398    1.667385
H      -1.085039    0.271337    4.380187
