17

C      -0.143849    1.447305   -0.033040
C       0.060084   -0.038265    0.007053
O      -1.064716   -0.760928   -0.458667
C      -1.226778   -1.939596    0.216006
O      -2.087746   -2.719173   -0.058746
C      -0.169052   -2.044481    1.319537
C       0.708318   -0.829354    1.130283
C       1.387309   -0.703551   -0.230147
O       1.418885   -1.787154   -1.102052
H       0.748354    1.962893    0.332853
H      -0.339809    1.783721   -1.055799
H      -0.992625    1.738785    0.593454
H      -0.671406   -2.043284    2.291332
H       0.343428   -3.005188    1.218699
H       1.144963   -0.335662    1.990588
H       2.247914   -0.035659   -0.276989
H       2.086331   -2.408787   -0.791974
