15

C      -0.044216    1.537364   -0.008910
C       1.445578    1.915063   -0.030520
O       2.172432    1.502743    1.125315
C       2.292173    0.698137   -0.071241
C       1.360758   -0.449276   -0.055380
C       1.299139   -1.801626   -0.058917
O      -0.005421   -2.195459    0.019321
C      -0.780219   -1.066954    0.079434
C       0.009099    0.030656    0.028503
H      -0.544591    1.979810    0.858977
H      -0.546671    1.917489   -0.906186
H       1.756721    2.863900   -0.461105
H       3.281805    0.666436   -0.514853
H       2.022937   -2.597638   -0.109623
H      -1.841321   -1.241716    0.141989
