19

C      -0.062062    1.615003    0.113816
C       0.041805    0.090919    0.073622
C      -1.351601   -0.536277    0.029973
O      -2.386021    0.074840   -0.039445
C       0.812558   -0.469940   -1.112458
C       1.576066   -1.511346   -0.779146
C       1.492678   -1.820453    0.695958
C       0.829902   -0.547591    1.284978
O       1.791675    0.339208    1.821006
H       0.924791    2.081019    0.084708
H      -0.644831    1.973143   -0.738652
H      -0.569235    1.947514    1.022767
H      -1.346273   -1.650569    0.051345
H       0.688229   -0.067843   -2.111922
H       2.183333   -2.086054   -1.469673
H       0.886822   -2.717084    0.881687
H       2.463804   -1.997031    1.171568
H       0.163232   -0.773824    2.122055
H       2.429434    0.536933    1.125055
