23

C      -1.502466   -0.239365    0.061639
C       0.020685   -0.099709    0.079723
C       0.712117   -0.598232   -1.210965
C       2.231045   -0.302670   -1.182267
C       2.958282   -0.662740   -2.478947
C       0.461828   -2.022876   -1.433277
C       0.285655   -3.203428   -1.597090
C       0.059745   -4.628005   -1.805335
O       1.243632   -5.227860   -2.322250
H      -1.943013    0.336247   -0.760302
H      -1.799310   -1.284375   -0.067377
H      -1.940964    0.125393    0.995562
H       0.294173    0.953230    0.220567
H       0.436167   -0.648941    0.933197
H       0.281468   -0.039057   -2.056119
H       2.358387    0.765630   -0.968000
H       2.676298   -0.847688   -0.341269
H       2.858031   -1.728711   -2.702090
H       2.552029   -0.102485   -3.328817
H       4.024846   -0.428878   -2.405990
H      -0.234781   -5.092462   -0.849796
H      -0.787617   -4.763235   -2.497617
H       1.057737   -6.164013   -2.448488
