21

C      -0.103135    1.371348   -0.073158
C       1.331998    0.905805    0.030687
C       1.952484    0.835723    1.429698
C       1.483474   -0.519878    2.016144
C       0.140975   -0.848188    1.302091
C      -0.039584   -2.280481    0.863974
C      -0.134090   -2.407303   -0.459823
C      -0.070973   -1.080532   -1.182507
C       0.203185   -0.097645   -0.045359
H      -0.563711    1.827992    0.799833
H      -0.425581    1.799055   -1.018414
H       1.981139    1.071455   -0.823353
H       3.043759    0.899898    1.391476
H       1.610871    1.672785    2.050644
H       2.214625   -1.294791    1.759676
H       1.395854   -0.505495    3.107056
H      -0.701676   -0.516424    1.925441
H      -0.075124   -3.102730    1.571250
H      -0.257612   -3.347070   -0.987875
H       0.709091   -1.064398   -1.955557
H      -1.017556   -0.865501   -1.698687
