16

C      -0.072394    1.452545   -0.336429
C      -0.098999   -0.020025   -0.119686
C      -1.115230   -0.889030    0.025612
C      -2.604438   -0.749451    0.011531
O      -3.053025    0.298469   -0.834594
O      -0.613210   -2.166368    0.233067
C       0.767548   -2.110711    0.217852
O       1.492780   -3.056082    0.362830
N       1.068319   -0.785095    0.003484
H       0.496588    1.714717   -1.236808
H      -1.091846    1.821937   -0.451049
H       0.396387    1.970982    0.508631
H      -3.034965   -1.723228   -0.265100
H      -2.992015   -0.503046    1.007027
H      -2.753200    0.095450   -1.727561
H       2.014586   -0.459990   -0.090200
