19

C       0.189062    1.543526   -0.058129
C       0.044843    0.042525    0.043774
C       0.454325   -0.769047   -1.186912
O       0.784914   -2.068766   -0.701866
C       1.452595   -1.877998    0.534688
C       0.712135   -0.725338    1.226372
O       1.499360    0.057222    2.084476
C      -0.738141   -1.033088    1.657781
O      -1.274413   -0.356781    0.504671
H       1.203930    1.821525   -0.357043
H      -0.513243    1.937182   -0.800403
H      -0.025916    2.012369    0.904450
H      -0.358792   -0.872574   -1.909020
H       1.324084   -0.304667   -1.679565
H       1.423682   -2.826641    1.080055
H       2.504074   -1.577695    0.390201
H       1.802325   -0.492438    2.815137
H      -1.024131   -2.091566    1.683448
H      -1.027828   -0.543671    2.596186
