20

C       0.644082    1.505501    0.017375
C       0.001363    0.124151   -0.002488
C       0.394923   -0.748995   -1.218458
C       1.415424   -1.744735   -0.646920
C       1.518862   -3.069570   -1.399081
O       2.672308   -1.059542   -0.664855
C       0.891771   -1.879734    0.791567
O       0.435134   -0.597470    1.165372
H       1.727884    1.413244   -0.088769
H       0.256791    2.122648   -0.800461
H       0.423634    2.010445    0.962393
H      -1.091855    0.229697    0.048418
H      -0.471275   -1.288164   -1.611845
H       0.835855   -0.166930   -2.030325
H       1.867823   -2.896920   -2.420870
H       2.236118   -3.739187   -0.908830
H       0.555021   -3.586095   -1.440808
H       3.301424   -1.575254   -0.149204
H       0.080272   -2.626833    0.832102
H       1.671476   -2.191543    1.497346
