27

C       0.360316    1.423254    0.131034
C       0.221410   -0.106099    0.152001
C      -1.215369   -0.644633    0.121570
C      -2.055145   -0.042555    1.255411
C      -2.019519   -0.588916   -1.236422
C      -1.253976   -0.327942   -2.532137
C      -2.421618   -2.078489   -1.028314
C      -1.382233   -2.213709    0.121176
C      -0.167138   -3.075460   -0.216120
H       1.414018    1.711273    0.059589
H      -0.161279    1.867530   -0.722853
H      -0.042587    1.882919    1.038134
H       0.787898   -0.521345   -0.687935
H       0.711675   -0.489310    1.057748
H      -2.185839    1.037559    1.135234
H      -3.054200   -0.490531    1.283147
H      -1.585744   -0.220419    2.230665
H      -2.864813    0.106480   -1.188883
H      -0.404351   -1.007178   -2.656367
H      -1.916404   -0.480782   -3.391987
H      -0.872028    0.696382   -2.589264
H      -3.456861   -2.216186   -0.706399
H      -2.247227   -2.729786   -1.890801
H      -1.809611   -2.579360    1.061601
H       0.287382   -2.799754   -1.173152
H       0.609261   -3.006066    0.553164
H      -0.464756   -4.127579   -0.291092
