20

N      -0.330484   -0.974916   -0.601843
C      -0.132421    0.132700   -0.335959
C       0.122443    1.525898    0.012156
C      -0.678301    2.019086    1.246504
C       0.100677    3.263381    1.747668
C       1.471396    3.202897    1.051103
C       2.010850    4.415127    0.327584
C       2.675321    3.920917    1.590823
C       1.586961    1.827569    0.406652
H      -0.138310    2.142919   -0.856365
H      -1.720949    2.230565    1.000390
H      -0.677718    1.231429    2.005525
H      -0.425279    4.189448    1.496458
H       0.200165    3.239857    2.837212
H       2.530499    4.266299   -0.613785
H       1.439231    5.336369    0.379787
H       2.552814    4.508838    2.494938
H       3.643870    3.438757    1.504382
H       1.925902    1.077643    1.131784
H       2.270612    1.800163   -0.445474
