20

C       1.701973    0.822142    0.414853
C       0.349781    0.129515    0.203622
C       0.128833   -0.243099   -1.241181
O       0.868798   -1.356015   -1.771306
C      -0.558716   -1.463600   -1.705290
C      -1.154279   -2.490224   -0.768176
O      -2.362784   -2.620369   -0.678249
N      -0.234185   -3.221837   -0.087809
C      -0.599495   -4.296809    0.811508
H       2.524681    0.165229    0.116439
H       1.775859    1.740095   -0.178221
H       1.844268    1.090862    1.465391
H       0.279172   -0.764209    0.829938
H      -0.466499    0.796411    0.508495
H       0.101489    0.605975   -1.927919
H      -1.077357   -1.426121   -2.662013
H       0.732848   -3.047318   -0.315385
H      -0.174612   -4.142051    1.809033
H      -1.688027   -4.306731    0.883185
H      -0.259203   -5.267767    0.433989
