23

C      -0.149477    1.500936    0.065968
C      -0.010463   -0.026465   -0.007316
C       0.646178   -0.455819   -1.326680
C       0.770517   -0.555799    1.196244
C       0.142637   -0.426590    2.626057
C       0.374591   -1.937976    2.853678
O      -0.785668   -2.733939    2.536648
C      -0.305957   -2.975478    1.193052
C       0.937250   -2.093503    1.412757
H       0.833694    1.984868    0.021087
H      -0.745395    1.882753   -0.769479
H      -0.634468    1.817304    0.994810
H      -1.023011   -0.452678    0.026043
H       1.659726   -0.044849   -1.409298
H       0.722966   -1.545176   -1.406176
H       0.073217   -0.098030   -2.188472
H       1.766755   -0.096760    1.186672
H       0.685970    0.236947    3.303787
H      -0.919256   -0.167071    2.650788
H       0.868400   -2.266671    3.772006
H      -0.077733   -4.038189    1.039476
H      -1.026123   -2.658269    0.429464
H       1.903084   -2.535079    1.169672
