19

C      -0.389003    1.511009    0.231125
C      -0.011191    0.051331    0.067738
C      -1.160970   -0.845318   -0.349957
N       1.312573   -0.186643   -0.535649
C       1.085617   -0.566024    0.872966
C       1.888503    0.152347    1.906270
C       1.761882   -0.171668    3.333414
O       2.883668   -0.629829    2.580056
H       0.484495    2.130126    0.441753
H      -0.848680    1.887768   -0.689592
H      -1.113260    1.640135    1.043093
H      -1.557009   -0.535894   -1.324549
H      -0.845970   -1.890981   -0.426854
H      -1.985092   -0.794917    0.370387
H       1.297815   -1.011992   -1.130021
H       0.974684   -1.626170    1.098966
H       2.224352    1.149819    1.628221
H       1.974987    0.589479    4.082963
H       1.062644   -0.946115    3.648418
