19

C       0.174563    1.598951   -0.098472
C      -0.016052    0.076866    0.061594
N       0.403274   -0.649764   -1.139800
C       1.625437   -1.236928   -1.349274
O       2.022442   -1.608774   -2.438120
N       2.367700   -1.408853   -0.189311
C       1.849246   -1.154196    1.078137
C       0.716777   -0.472059    1.268088
C       0.144570   -0.210105    2.629988
H       1.234403    1.840415   -0.222017
H      -0.368434    1.964324   -0.977015
H      -0.205404    2.136330    0.775893
H      -1.091879   -0.112379    0.192750
H      -0.082959   -0.449825   -2.000471
H       3.194753   -1.969855   -0.303295
H       2.433184   -1.550573    1.901467
H       0.770269   -0.648539    3.412421
H       0.054274    0.863001    2.842067
H      -0.863632   -0.634233    2.730456
