17

C      -0.030971    1.620293    0.249512
C       0.027433    0.095636    0.104192
C       0.779429   -0.385630   -1.155725
O       1.606418   -1.470378   -0.716693
C       1.748402   -1.422495    0.643367
N       2.583772   -2.068521    1.337239
N       0.795177   -0.559188    1.147764
C      -1.411541   -0.450022    0.145883
O      -2.047571   -0.787313   -0.816020
H       0.980788    2.032299    0.307200
H      -0.547197    2.067021   -0.605549
H      -0.573816    1.909914    1.156135
H       0.090219   -0.746682   -1.920348
H       1.413362    0.406558   -1.570414
H       3.194515   -2.614888    0.734756
H       0.932157   -0.166589    2.063318
H      -1.824805   -0.512303    1.177989
