18

N       0.606945    0.457979    1.277129
C       0.424743   -0.248221    0.122867
O       1.256765   -0.240496   -0.768519
C      -0.881023   -1.019332    0.067500
C      -1.848810   -0.972705   -1.152368
C      -0.999858   -1.371892   -2.373360
C      -0.297222   -2.607596   -1.730327
C      -0.970780   -2.517728   -0.348532
O      -2.367352   -2.265989   -0.705160
H       1.454314    0.992572    1.379185
H      -0.065119    0.464511    2.023058
H      -1.471821   -0.882549    0.975502
H      -2.609744   -0.199002   -1.254956
H      -1.646107   -1.635775   -3.213168
H      -0.294082   -0.598294   -2.674877
H      -0.557243   -3.549739   -2.217433
H       0.786043   -2.497545   -1.685899
H      -0.833246   -3.324788    0.371128
