18

C      -0.042397    1.548046   -0.024572
C      -0.065602    0.022427    0.022774
C      -1.449833   -0.529926    0.344603
C       0.705510   -0.675062   -1.181475
N       1.666525   -1.157230   -0.180422
C       1.058191   -0.584445    0.908224
O       1.321473   -0.568991    2.080515
C       0.020183   -1.701628   -1.948703
C      -0.537837   -2.541894   -2.602964
H       0.954443    1.929762   -0.267427
H      -0.747500    1.927438   -0.771940
H      -0.327526    1.955636    0.950006
H      -2.186748   -0.192416   -0.391423
H      -1.457605   -1.622551    0.354202
H      -1.762376   -0.177198    1.331999
H       1.145167    0.060891   -1.865596
H       2.470568   -1.761351   -0.270622
H      -1.031885   -3.286762   -3.176934
