18

C       0.019501    1.641019    0.149251
C       0.017072    0.107697    0.015426
C      -1.359464   -0.489638   -0.013205
C      -2.154513   -0.759021   -1.117548
C      -1.924463   -0.573301   -2.581959
N      -3.316573   -1.264464   -0.623160
N      -3.342928   -1.351698    0.721223
C      -2.157548   -0.878896    1.089877
H       1.041651    2.032517    0.181785
H      -0.497199    2.109409   -0.694648
H      -0.494236    1.953080    1.063823
H       0.565006   -0.173739   -0.892363
H       0.579735   -0.325185    0.851112
H      -2.329254   -1.409533   -3.162490
H      -2.388011    0.345956   -2.960146
H      -0.854374   -0.510881   -2.794744
H      -4.113663   -1.584912   -1.146979
H      -1.901432   -0.837713    2.139668
