17

C      -0.929122   -1.716059    0.519609
C       0.564387   -1.561934   -0.023129
C       0.694703   -0.414630    1.017084
O       1.431866    0.776004    0.781118
C       0.626980    1.455248   -0.167591
C      -0.866580    1.321158    0.374353
C      -0.699921   -0.182191    0.375260
C      -0.025470   -0.495681   -0.987752
O       0.662780    0.689451   -1.359867
H      -1.031415   -2.111884    1.532323
H      -1.641392   -2.180535   -0.165710
H       1.255666   -2.379426   -0.238397
H       0.763324   -0.691621    2.071435
H       1.023637    2.452579   -0.350394
H      -1.585725    1.724868   -0.340442
H      -0.977761    1.793295    1.352008
H      -0.635356   -0.849021   -1.822185
