17

O      -0.006191    1.450910   -0.105906
C       0.022141    0.051863   -0.008428
C      -0.051536   -0.620437    1.383776
C      -1.522308   -0.124543    1.557697
C      -2.276344   -1.211667    2.313639
C      -1.601276   -2.438864    1.641026
N      -0.641002   -1.840966    0.679939
C      -1.349885   -0.622844    0.086277
H       0.897903    1.774228   -0.049608
H       0.721943   -0.414794   -0.709924
H       0.723629   -0.728495    2.146906
H      -1.733874    0.923559    1.765191
H      -2.106362   -1.165393    3.393975
H      -3.356701   -1.167519    2.143578
H      -1.054514   -3.071120    2.346658
H      -2.305337   -3.074062    1.095550
H      -2.112600   -0.730731   -0.688062
