18

C       0.020138    1.577896   -0.068988
C      -0.013939    0.055493    0.022863
N       0.643211   -0.536955   -1.123999
C       0.787062   -1.865738   -1.352688
N       1.431640   -2.203091   -2.487071
C       1.579068   -3.501660   -2.722002
N       1.167435   -4.525935   -1.972837
C       0.528573   -4.169586   -0.848943
C       0.303624   -2.858308   -0.476936
H       1.050914    1.945859   -0.095229
H      -0.493504    1.927644   -0.970350
H      -0.475998    2.022127    0.797291
H       0.477878   -0.270565    0.950653
H      -1.056600   -0.288764    0.081046
H       1.035421    0.062464   -1.833039
H       2.101526   -3.758426   -3.641921
H       0.179856   -4.982744   -0.215345
H      -0.217026   -2.615007    0.440045
