14

O       0.077757    1.372290   -0.086226
C       0.061891    0.012581   -0.058443
C      -0.021939   -0.710210   -1.241522
C      -0.038260   -2.104820   -1.211187
C       0.029212   -2.781326    0.001670
C       0.113728   -2.060061    1.194273
C       0.129902   -0.673189    1.164137
O       0.210509    0.128162    2.277691
H       0.140433    1.680384    0.826644
H      -0.073609   -0.164123   -2.176672
H      -0.104002   -2.657855   -2.141558
H       0.016854   -3.864883    0.030205
H       0.167095   -2.575894    2.149652
H       0.253569   -0.418601    3.067635
