25

C      -0.117300    1.552988   -0.080325
C      -0.007557    0.030796    0.062022
C       0.720614   -0.454525    1.302777
C       2.149898    0.044952    1.695201
C       1.754623   -0.514998    3.089364
C       0.312910   -0.042111    2.755918
C       1.667643   -2.026507    2.815871
C       0.913536   -1.994567    1.443163
C      -0.359635   -2.838702    1.398728
H       0.869138    2.024998   -0.129265
H      -0.656328    1.818948   -0.994988
H      -0.657867    1.997485    0.761714
H      -1.017112   -0.400540    0.049951
H       0.501539   -0.377768   -0.822741
H       3.008131   -0.401552    1.181203
H       2.235361    1.134204    1.690248
H       2.264382   -0.197004    3.999565
H       0.193002    1.038396    2.864287
H      -0.526372   -0.556600    3.234040
H       2.651581   -2.500673    2.747700
H       1.094759   -2.554112    3.586067
H       1.577063   -2.337674    0.639274
H      -1.086498   -2.520340    2.153946
H      -0.848234   -2.784519    0.420225
H      -0.128857   -3.892042    1.592047
