22

C       1.412175   -0.568297    1.167016
O       1.666039   -1.798112    0.516500
C       1.514915   -1.718612   -0.865309
C       1.347308   -3.010757   -1.600635
C       0.180645   -2.038825   -1.518972
C      -0.990269   -2.429945   -0.636864
N      -0.025793   -1.301522   -2.747583
C      -1.203680   -1.546033   -3.569707
C      -1.038758   -0.258759   -2.833078
H       2.093486    0.220661    0.814460
H       0.378968   -0.227119    1.010456
H       1.578303   -0.728077    2.234999
H       2.101541   -0.934628   -1.344746
H       1.846009   -3.121423   -2.555819
H       1.286093   -3.908064   -0.994554
H      -0.614766   -2.825920    0.309075
H      -1.634329   -1.575968   -0.400601
H      -1.610194   -3.203385   -1.102930
H      -1.027479   -1.599274   -4.640842
H      -1.968917   -2.226071   -3.202591
H      -1.699358   -0.087007   -1.986328
H      -0.735065    0.643943   -3.356618
