13

O      -0.010114   -0.011148    0.166458
C      -0.062793    1.186575    0.085978
C      -1.251060    2.053193   -0.036043
C      -0.901652    3.343969   -0.047937
C       0.582645    3.573496    0.072304
C       1.182006    2.144284    0.058004
C       2.116775    1.873472    1.139009
N       2.852279    1.678733    2.008864
H      -2.251482    1.645448   -0.092661
H      -1.593584    4.175619   -0.124235
H       0.966606    4.190922   -0.746482
H       0.820975    4.105233    0.999944
H       1.692128    1.949290   -0.892395
