23

C       0.159172    1.542992    0.009034
C       0.023532    0.017535    0.004120
C      -1.429749   -0.484280    0.050541
C      -1.548113   -2.030607   -0.084197
C      -2.653387   -2.449650    0.894586
C      -3.849110   -3.280056    0.465377
C      -2.806384   -3.871592    1.377781
C      -2.827462   -1.277654    1.791811
C      -2.166415   -0.208754    1.347582
H       1.208966    1.846225   -0.054010
H      -0.367167    1.989312   -0.842328
H      -0.255550    1.983943    0.921384
H       0.500466   -0.382980   -0.900145
H       0.571997   -0.407997    0.854690
H      -1.971401    0.005434   -0.774640
H      -1.747428   -2.347279   -1.112039
H      -0.598114   -2.489354    0.217123
H      -4.820049   -3.035402    0.883808
H      -3.880487   -3.619325   -0.565186
H      -2.131123   -4.615985    0.967163
H      -3.066784   -4.035637    2.418731
H      -3.450076   -1.314414    2.680085
H      -2.173562    0.766435    1.821317
