18

C      -0.137058    1.174295   -1.139820
C      -0.095383    0.023516   -0.160814
C       0.935059   -1.043327   -0.339263
N       1.036284   -0.099916    0.783232
C      -1.432445   -0.368007    0.423084
N      -2.498103   -0.174595   -0.238275
N      -1.316187   -0.943807    1.701260
C      -2.331956   -1.448655    2.466621
O      -3.498110   -1.518605    2.143893
H       0.848621    1.337605   -1.586979
H      -0.858772    0.964836   -1.931230
H      -0.454354    2.096346   -0.642486
H       0.716448   -2.068917   -0.056116
H       1.620938   -0.937375   -1.175078
H       1.731325    0.617859    0.599788
H      -3.307251   -0.516402    0.281263
H      -0.381470   -0.887122    2.093799
H      -1.961777   -1.802435    3.448160
