27

C      -0.178467    1.556955    0.068495
C      -0.206823    0.035676   -0.101856
C       0.789632   -0.475133   -1.148227
C       0.767623   -1.996879   -1.322502
C       1.765872   -2.507414   -2.371030
C       1.739414   -4.015489   -2.518452
C       0.741660   -4.695434   -3.429362
C       2.216028   -4.743520   -3.756376
C       2.773920   -4.034585   -4.971702
H       0.812924    1.901885    0.383177
H      -0.420062    2.065472   -0.871706
H      -0.900347    1.889844    0.821049
H       0.004183   -0.445073    0.862774
H      -1.219765   -0.282920   -0.381894
H       0.577988    0.005475   -2.114114
H       1.803572   -0.154559   -0.869604
H       0.980872   -2.476265   -0.356726
H      -0.243799   -2.320685   -1.602491
H       1.547148   -2.029130   -3.333515
H       2.778440   -2.181315   -2.093867
H       1.939432   -4.537235   -1.584248
H       0.242739   -5.597963   -3.092906
H       0.120292   -4.053057   -4.047608
H       2.699934   -5.696778   -3.556197
H       2.240985   -3.103779   -5.185236
H       3.833747   -3.786958   -4.841482
H       2.689579   -4.668457   -5.861619
