16

C       0.208381    1.289524    0.261394
N      -0.303993    0.016917   -0.235850
C       0.456280   -0.713023   -1.129540
C       0.674790   -2.079350   -1.227325
N       1.441409   -2.355177   -2.355111
C       1.684010   -1.201208   -2.905959
N       1.110251   -0.162169   -2.201714
C       0.190583   -3.047187   -0.322380
C      -0.244305   -3.828927    0.487233
H       1.209258    1.216710    0.712773
H       0.249399    2.026565   -0.548114
H      -0.486590    1.677428    1.009112
H      -0.644490   -0.588938    0.499764
H       2.269778   -1.027630   -3.795811
H       1.121760    0.811478   -2.453148
H      -0.622200   -4.536442    1.182169
