16

O      -0.132767    1.444313    0.458965
C      -0.000070    0.094838    0.084359
C       0.457971   -0.932147    1.168544
C      -0.885442   -1.692153    1.021280
C      -1.989854   -1.222662    2.007608
C      -2.427284   -0.173188    0.964745
O      -3.321525    0.617522    0.918332
C      -1.366450   -0.631300   -0.049595
H       0.745713    1.834309    0.513478
H       0.585411   -0.006108   -0.839442
H       1.342261   -1.507422    0.883948
H       0.626846   -0.490437    2.154819
H      -0.841968   -2.757915    0.805460
H      -2.782759   -1.959441    2.177426
H      -1.664200   -0.837404    2.978303
H      -1.721144   -0.846776   -1.058140
