19

C       0.235420    1.537384   -0.084594
C      -0.037306    0.054701    0.103286
O       0.394702   -0.660641   -1.083014
C       1.084030   -1.795947   -0.769171
N       1.390825   -2.714073   -1.580201
C       1.401649   -1.800521    0.693615
C       1.660075   -3.103567    1.393251
N       2.166920   -0.565114    1.039525
C       0.710084   -0.611754    1.246035
H       1.311869    1.711250   -0.143590
H      -0.237509    1.898460   -1.001465
H      -0.172055    2.104663    0.758605
H      -1.114403   -0.126927    0.218587
H       1.035986   -2.502226   -2.514453
H       2.543039   -3.590189    0.969524
H       1.822238   -2.946659    2.464486
H       0.816640   -3.788365    1.266996
H       2.634184   -0.729161    1.929717
H       0.293439   -0.590514    2.247190
