22

C      -1.279129    1.591587   -0.628414
C      -1.188568    0.341505    0.255312
N      -2.177437   -0.640407   -0.151017
C      -2.062336   -1.634922   -0.921601
C      -3.324868   -2.407513   -1.302186
O      -3.204053   -3.807776   -1.220744
C      -3.059789   -4.278811    0.100376
O      -1.010649   -2.203858   -1.573467
C       0.337196   -1.809645   -1.364827
H      -0.629910    2.383997   -0.242766
H      -0.976288    1.368788   -1.657137
H      -2.307082    1.963701   -0.655686
H      -0.154392   -0.017283    0.275459
H      -1.435431    0.625939    1.285321
H      -4.137210   -2.026527   -0.670395
H      -3.559744   -2.191106   -2.350616
H      -2.132783   -3.919287    0.571145
H      -3.906610   -3.974751    0.735227
H      -3.027096   -5.369855    0.050132
H       0.937466   -2.466386   -1.998259
H       0.512749   -0.771247   -1.663736
H       0.639976   -1.949476   -0.322148
