19

C       0.319857    1.271150   -0.409343
C      -0.011800   -0.030773    0.331806
O       0.278063    0.112706    1.703649
C      -1.455895   -0.432286    0.174692
N      -2.266343   -0.597425    1.195607
C      -3.490887   -0.967349    0.670413
C      -4.669803   -1.243058    1.544670
C      -3.400197   -1.022454   -0.694527
N      -2.094892   -0.678695   -0.999918
H       1.365342    1.533985   -0.228162
H       0.175868    1.168323   -1.491068
H      -0.312845    2.085200   -0.044995
H       0.620647   -0.833551   -0.086790
H      -0.543504   -0.102978    2.173058
H      -5.543079   -1.522602    0.949283
H      -4.459095   -2.057927    2.245691
H      -4.931622   -0.363816    2.143197
H      -4.118818   -1.266575   -1.459241
H      -1.696054   -0.623644   -1.921668
