19

C       0.059643    1.553056    0.073654
C       0.029338    0.023618    0.040049
C       0.626715   -0.535601   -1.256087
N       0.654299   -1.986179   -1.284844
N       1.639185   -2.671310   -0.639545
C       1.333672   -3.948773   -0.824834
C       0.153198   -4.120206   -1.580222
C      -0.245899   -2.824716   -1.846448
O      -1.296474   -2.294303   -2.515956
H       1.084766    1.931942   -0.004047
H      -0.516253    1.983230   -0.753503
H      -0.364997    1.934386    1.006725
H       0.593194   -0.388793    0.883542
H      -1.001413   -0.336395    0.140077
H       0.052022   -0.198909   -2.123626
H       1.658745   -0.193897   -1.377517
H       1.974744   -4.715194   -0.413246
H      -0.329831   -5.033743   -1.886559
H      -1.806946   -3.012439   -2.901868
