15

C      -0.210421    1.569071    0.021395
C      -0.062964    0.045552    0.009893
C       1.191669   -0.481180   -0.749963
O       1.844197   -0.844009    0.484900
C       0.665227   -0.585653    1.257245
C       0.905040    0.291571    2.402397
N       1.076741    0.991898    3.305003
C      -1.317177   -0.612203   -0.333130
N      -2.308772   -1.138592   -0.607717
H       0.742499    2.035293    0.282911
H      -0.515879    1.921120   -0.967449
H      -0.961733    1.885236    0.748931
H       1.010038   -1.350912   -1.388888
H       1.749982    0.281578   -1.300594
H       0.192607   -1.510999    1.607693
