15

C       0.085738    1.447967    0.186562
O       0.039647    0.024989    0.059380
C       0.616609   -0.694380    1.018925
C       0.720287   -2.050561    1.151703
C       1.437313   -2.251619    2.366024
C       1.721915   -1.021195    2.890606
O       1.204813   -0.045600    2.041396
C       2.390570   -0.592992    4.043245
C       2.968416   -0.232961    5.038835
H       1.118858    1.808225    0.198629
H      -0.434938    1.835977   -0.688759
H      -0.419026    1.777463    1.099770
H       0.334137   -2.789271    0.470384
H       1.715447   -3.194813    2.809105
H       3.477607    0.080626    5.915774
