21

C      -0.004770    1.448796    0.045456
C       0.000904   -0.070485    0.042977
C       1.106026   -0.659462   -0.830066
C       1.022753   -2.180584   -1.050292
O      -0.306159   -2.671802   -1.135912
C      -1.126869   -2.238543   -0.070695
C      -0.496649   -2.203554    1.368444
C      -0.549805   -0.678513    1.321922
C      -1.352747   -0.717598    0.012184
H       0.921327    1.845904    0.477622
H      -0.091009    1.842774   -0.973593
H      -0.842775    1.844305    0.628169
H       1.033554   -0.157747   -1.803959
H       2.096661   -0.411617   -0.427260
H       1.499711   -2.448883   -1.997173
H       1.567420   -2.709547   -0.256075
H      -2.038601   -2.833622   -0.136067
H      -1.209347   -2.603541    2.094730
H       0.466877   -2.692283    1.531779
H      -0.721315   -0.044124    2.184213
H      -2.255980   -0.189312   -0.270194
