18

C      -0.063281    1.369119   -0.079426
O      -0.163776   -0.041662   -0.125938
C       0.550838   -0.656173   -1.196026
C       1.237795   -1.844153   -0.699424
C       1.847473   -2.782752   -0.266970
C      -0.419309   -0.958688   -2.339474
N      -0.758578   -2.132987   -2.656543
O      -0.820866    0.224569   -2.880449
C      -1.804617    0.177224   -3.904330
H       0.984688    1.695993   -0.003160
H      -0.519956    1.843831   -0.956070
H      -0.595823    1.687408    0.820068
H       1.300505    0.048290   -1.588538
H       2.367526   -3.629199    0.108014
H      -1.428817   -2.162154   -3.423690
H      -1.999730    1.212485   -4.185586
H      -1.441512   -0.373840   -4.780251
H      -2.731370   -0.284524   -3.544071
