19

C      -0.022308    1.566906   -0.100187
C      -0.004849    0.038723    0.020533
C       0.708238   -0.499465    1.268839
C      -0.032533   -0.162570    2.561446
O       0.624768   -0.718244    3.710448
C       1.189176   -1.937744    3.534512
N       1.330660   -2.614882    2.477184
C       0.880809   -2.024642    1.219583
H       0.994397    1.974862   -0.091516
H      -0.496944    1.878271   -1.035606
H      -0.575755    2.039023    0.717941
H      -1.033962   -0.345740    0.002302
H       0.488621   -0.384839   -0.863355
H       1.706864   -0.044921    1.331210
H      -0.084576    0.911899    2.748454
H      -1.058929   -0.554802    2.524006
H       1.550520   -2.314150    4.490104
H      -0.066097   -2.502187    0.927839
H       1.605185   -2.296169    0.442678
