19

C      -0.184597    1.339759   -0.140600
O       0.055150   -0.054215    0.035662
C       0.573918   -0.693162   -1.022844
N       0.728978   -1.944362   -1.005084
C       1.296038   -2.566147   -2.186071
C       2.459697   -3.475400   -1.782481
C       0.187580   -3.395269   -2.886596
C      -0.867346   -2.544524   -3.429912
N      -1.677521   -1.840757   -3.859043
H       0.727500    1.867886   -0.443368
H      -0.971213    1.514744   -0.883092
H      -0.512384    1.718275    0.827864
H       0.847159   -0.040326   -1.866189
H       1.659909   -1.818874   -2.912252
H       2.898423   -3.966179   -2.657119
H       3.238902   -2.889919   -1.287739
H       2.118490   -4.241675   -1.079930
H       0.617917   -3.988122   -3.700938
H      -0.249582   -4.088989   -2.160680
