19

O      -0.049427    1.405510   -0.058842
C      -0.003449    0.006236    0.028410
C       0.311410   -0.697767    1.381302
C      -0.752403   -1.724917    0.963726
C      -0.383042   -2.487897   -0.373226
C      -1.567917   -1.767183   -1.076364
C      -1.418145   -0.685495    0.008040
O       0.868888   -2.052085   -0.883917
C       0.885292   -0.634021   -1.044498
H       0.844765    1.748091    0.053342
H       1.337884   -1.034162    1.555593
H      -0.040308   -0.097364    2.225250
H      -1.307720   -2.301780    1.703604
H      -0.349695   -3.577990   -0.359249
H      -1.455656   -1.517198   -2.135300
H      -2.501834   -2.319884   -0.937688
H      -2.237803   -0.027117    0.296526
H       0.541774   -0.338981   -2.046267
H       1.928175   -0.311242   -0.932625
