16

O      -0.037400    0.788324    1.009209
C       0.139657    1.335711   -0.057252
N       1.339493    1.450356   -0.691355
C       2.582082    0.980526   -0.114572
C       3.590832    2.108572    0.032789
C       5.011691    1.855502   -0.278983
O       4.179828    2.524076   -1.221262
C       3.233809    3.174421    0.937049
C       2.908572    4.038683    1.705575
H      -0.677217    1.799327   -0.643964
H       1.381977    1.951687   -1.564973
H       2.334508    0.549953    0.858407
H       3.027866    0.200194   -0.742293
H       5.772174    2.470780    0.196675
H       5.321487    0.847489   -0.552617
H       2.623432    4.804826    2.383991
