23

C      -0.097166    1.547546    0.142488
C       0.006150    0.025959    0.020609
C       0.711840   -0.499382   -1.262636
C       0.722109   -2.045534   -1.235324
C      -0.013172   -0.014942   -2.539205
O      -1.363388   -0.417988   -2.477775
C      -2.098471   -0.050605   -3.620459
C       2.090342   -0.003903   -1.324453
C       3.222440    0.397858   -1.384728
H       0.886012    2.021235    0.062349
H      -0.744847    1.971205   -0.631086
H      -0.525247    1.822072    1.111519
H       0.553230   -0.373625    0.881882
H      -0.995177   -0.414283    0.043293
H      -0.303690   -2.420404   -1.263851
H       1.263954   -2.445871   -2.097124
H       1.210077   -2.411713   -0.328064
H       0.060397    1.079583   -2.627081
H       0.481669   -0.447493   -3.423918
H      -2.109760    1.041176   -3.765546
H      -1.690971   -0.512269   -4.533635
H      -3.124226   -0.398338   -3.475944
H       4.223162    0.749911   -1.433046
