15

C       0.227938    1.485648    0.040432
C       0.095768    0.001458   -0.040289
C      -0.019948   -0.800769   -1.133775
C      -0.045144   -0.579300   -2.612917
O       0.865649    0.424864   -3.035694
O      -0.120163   -2.100210   -0.690660
C      -0.064773   -2.001266    0.654557
N       0.066707   -0.798325    1.103703
H       1.086497    1.762225    0.660997
H       0.359051    1.912614   -0.955341
H      -0.659023    1.932262    0.503329
H       0.136758   -1.543204   -3.111026
H      -1.029227   -0.228316   -2.944223
H       1.739451    0.177688   -2.713783
H      -0.132754   -2.922365    1.212321
