17

C       0.359742    1.371179    0.056993
N       0.064570   -0.044088    0.007273
N       0.191926   -0.753232   -1.145784
C      -0.169404   -1.967769   -0.769018
N      -0.515242   -2.094382    0.539414
C      -0.353452   -0.862332    0.998181
N      -0.568594   -0.372559    2.290469
C      -1.255574   -1.282248    3.217928
C       0.195679   -1.034020    3.376204
H       1.433552    1.544980   -0.057858
H      -0.170382    1.882125   -0.749506
H       0.026957    1.748894    1.023869
H      -0.187739   -2.793050   -1.465558
H      -1.965765   -0.792177    3.876516
H      -1.555974   -2.244350    2.816844
H       0.870896   -1.830738    3.079045
H       0.562731   -0.361366    4.144799
