19

C      -0.022819    1.471776   -0.133633
N      -0.059643    0.040491    0.094180
C      -1.319743   -0.607316    0.504352
C      -0.485231   -1.652897    1.280483
O      -0.222214   -2.844920    0.598939
C       0.683808   -0.580081    1.219765
C       2.096972   -1.051338    0.900439
C       0.671135    0.247172    2.440801
N       0.631667    0.922358    3.379579
H       0.999392    1.785167   -0.367299
H      -0.651319    1.709441   -0.997616
H      -0.377913    2.058836    0.729321
H      -1.942137    0.008605    1.172125
H      -1.936761   -0.982392   -0.319446
H      -0.821313   -1.923124    2.280638
H      -0.059682   -2.629938   -0.326997
H       2.071393   -1.756124    0.067906
H       2.730892   -0.203550    0.624833
H       2.544569   -1.546874    1.766252
