21

C      -0.156334    1.520491   -0.060309
C      -0.109338   -0.005711    0.049754
C       0.725678   -0.523892    1.248463
C       0.135642   -0.124625    2.617180
C       0.897243   -1.972073    1.162331
C       1.021450   -3.170610    1.072160
C       1.177621   -4.608415    0.963950
C       1.467745   -5.331512    2.264829
O       1.080829   -5.184738   -0.099288
H       0.852306    1.944705   -0.121611
H      -0.697183    1.822050   -0.962200
H      -0.661634    1.982013    0.793289
H      -1.125153   -0.410721    0.131116
H       0.315857   -0.425716   -0.867648
H       1.728895   -0.078065    1.170436
H      -0.876800   -0.524484    2.730588
H       0.748334   -0.516583    3.432918
H       0.089875    0.962569    2.717380
H       2.387461   -4.941925    2.714457
H       0.660606   -5.151286    2.983106
H       1.567779   -6.401218    2.074964
