15

O      -0.105875   -0.216325    0.002525
C      -0.069412    0.983320    0.005085
C       1.180333    1.861443    0.000594
C       2.426392    1.115116   -0.015182
C       3.469200    0.521484   -0.028216
O      -1.162251    1.776169    0.013261
C      -2.420093    1.066347    0.019557
C      -3.501898    2.034711    0.030059
C      -4.419757    2.808262    0.038847
H       1.109832    2.530589   -0.865789
H       1.124501    2.517548    0.878046
H       4.384988   -0.015804   -0.039686
H      -2.471531    0.419595   -0.862804
H      -2.459503    0.413793    0.898245
H      -5.230629    3.494321    0.046788
