16

C      -0.011766    1.521351   -0.044801
C       0.012569    0.017837   -0.043554
C      -1.127705   -0.731376    0.018685
N      -2.395380   -0.257216    0.061270
C      -1.020999   -2.196492    0.020004
N      -2.072784   -2.912609    0.103149
O       0.221135   -2.745871   -0.063990
N       1.408514   -1.987844   -0.136455
C       1.241534   -0.707690   -0.120339
H       0.996646    1.932957   -0.132421
H      -0.603894    1.914585   -0.880951
H      -0.448947    1.923986    0.878838
H      -2.575687    0.706522    0.279077
H      -3.113580   -0.946526    0.232011
H      -1.846010   -3.906320    0.097725
H       2.180846   -0.161768   -0.177111
