19

O      -0.037901    1.423809   -0.099732
C      -0.002769    0.042442   -0.045438
C      -1.158709   -0.921696    0.110126
C      -0.645179   -1.770510   -1.052409
C       0.642975   -0.860604   -1.127835
C       1.919846   -1.516191   -0.681128
C       2.047219   -1.955178    0.571730
C       0.955264   -1.795849    1.603483
C      -0.104232   -0.766113    1.209724
H       0.753742    1.762908    0.332854
H      -2.198867   -0.712522    0.329667
H      -0.465252   -2.832093   -0.859182
H      -1.268446   -1.670464   -1.944656
H       0.738528   -0.357407   -2.090504
H       2.722932   -1.654342   -1.399762
H       2.959394   -2.449924    0.895373
H       0.490978   -2.771244    1.811884
H       1.409821   -1.491313    2.555837
H      -0.505828   -0.190751    2.040096
