19

C      -0.329185    1.516849   -0.117711
C      -0.060071    0.025830   -0.080157
C      -1.112982   -0.747583    0.695853
C       0.586278   -0.728036   -1.175761
C       1.671239    0.061856   -1.903995
C       2.364525    0.199711   -0.517508
C       2.710725    1.517198    0.006335
N       3.014487    2.555091    0.415684
N       1.278428   -0.579327    0.187996
H       0.338662    2.079043   -0.770157
H      -1.352628    1.683242   -0.470423
H      -0.248504    1.945682    0.886001
H      -2.094310   -0.641648    0.221516
H      -0.859242   -1.808933    0.747033
H      -1.185614   -0.368174    1.719986
H       0.215991   -1.693463   -1.507019
H       2.263454   -0.536014   -2.597017
H       1.358494    0.979576   -2.406154
H       3.269226   -0.412507   -0.473270
