23

C       0.294478    1.561231    0.232861
C       0.223285    0.033576    0.107235
O      -1.091372   -0.421063    0.398597
C       0.640815   -0.488551   -1.279332
O      -0.354023   -0.104076   -2.229325
C       2.125532   -0.230341   -1.666020
C       2.445862   -1.698397   -1.281786
C       0.928375   -2.020664   -1.362376
C       0.323772   -3.020903   -0.388653
H       1.313424    1.942254    0.115408
H      -0.345935    2.049903   -0.511434
H      -0.073463    1.858095    1.217961
H       0.879165   -0.409715    0.866524
H      -1.575698   -0.336688   -0.434103
H      -0.285472    0.846868   -2.371200
H       2.209705   -0.061441   -2.742958
H       2.661786    0.562044   -1.138890
H       3.112247   -2.256824   -1.942192
H       2.825432   -1.780698   -0.258607
H       0.683134   -2.313152   -2.389212
H       0.538192   -2.760686    0.652079
H      -0.762544   -3.081202   -0.492302
H       0.740093   -4.017764   -0.574771
