20

C      -0.110898    1.607855   -0.017632
C       0.060536    0.093870    0.004268
C       1.022743   -0.645739   -0.995197
C       1.577284   -1.486229    0.202184
O       1.414496   -2.872068    0.169711
C       2.834366   -0.962753    0.934677
C       2.928383    0.502857    0.949164
N       1.988232   -0.133194    1.898521
C       0.743163   -0.652694    1.188573
H       0.829082    2.151980    0.098267
H      -0.566249    1.928559   -0.961155
H      -0.772321    1.928824    0.794393
H      -0.933906   -0.355233   -0.098112
H       0.503210   -1.262657   -1.732220
H       1.752831   -0.019146   -1.514808
H       2.022354   -3.232560   -0.486146
H       3.617810   -1.619516    1.303620
H       3.774996    0.943549    1.469308
H       2.576540    1.092557    0.112076
H       0.094464   -1.118721    1.930287
