16

C      -0.003055    1.498251   -0.030493
N       1.351887    2.064585    0.018596
C       2.357895    1.313656    0.239989
N       2.368495   -0.048750    0.471799
C       1.164494   -0.726564    0.235512
C       0.027235    0.001859   -0.005846
N      -0.990330   -0.901066   -0.203114
C      -0.505425   -2.180290   -0.086889
C       0.843924   -2.109078    0.190196
H      -0.579373    1.915480    0.813086
H      -0.501284    1.882614   -0.934509
H       3.347636    1.770033    0.277078
H       3.242101   -0.539895    0.377350
H      -1.948208   -0.662804   -0.390853
H      -1.152029   -3.033907   -0.207044
H       1.509684   -2.945671    0.335283
