18

O      -0.215818    1.362974   -0.009489
C      -0.061167   -0.044391   -0.034843
C       1.077062   -0.523115   -0.977381
O       1.925490   -0.809820    0.195331
C       0.836661   -0.648986    1.026135
N       0.634581   -1.123916    2.165669
C      -0.771530   -1.055027    2.600465
C      -1.800824   -0.443477    1.609466
C      -1.440378   -0.663374    0.119802
H       0.627968    1.765553    0.224604
H       0.892359   -1.441453   -1.540966
H       1.513939    0.248525   -1.614856
H      -1.050295   -2.091804    2.830015
H      -0.820369   -0.518636    3.554664
H      -2.787908   -0.860618    1.830854
H      -1.865241    0.636819    1.767726
H      -2.173091   -0.182713   -0.535023
H      -1.403594   -1.729832   -0.128204
