22

C      -0.013617    1.564172    0.186405
C      -0.021630    0.068352   -0.007558
C      -0.060068   -0.555007   -1.195759
C      -0.156722    0.134979   -2.533562
C      -0.018130   -2.067581   -1.313879
C       0.412500   -2.784371   -0.031331
C      -0.312822   -2.183436    1.173084
C       0.028627   -0.696546    1.302402
H       0.818151    1.856186    0.841293
H       0.085286    2.130796   -0.739857
H      -0.930109    1.899351    0.690569
H      -0.321024    1.210772   -2.466688
H       0.752356   -0.031097   -3.127258
H      -0.983912   -0.288559   -3.118689
H      -1.011618   -2.426802   -1.626109
H       0.653582   -2.339660   -2.139676
H       0.216921   -3.859138   -0.114699
H       1.496003   -2.670568    0.105836
H      -1.396210   -2.300106    1.037420
H      -0.052308   -2.713101    2.096076
H       1.031998   -0.581330    1.742310
H      -0.651509   -0.216088    2.019160
