20

C       0.371100    1.551391    0.155569
C      -0.198879    0.164448   -0.165234
C       0.500292   -0.478382   -1.340065
N       1.761731   -1.165281   -1.063292
C       0.608126   -1.963615   -1.479845
C      -0.077350   -3.116695   -0.727167
C      -0.364244   -3.811901   -2.100139
C       0.465507   -2.703850   -2.783300
O       0.898937   -2.521248   -3.887349
H       1.436745    1.482294    0.393744
H       0.258879    2.233104   -0.694626
H      -0.141541    1.999199    1.011993
H      -0.095701   -0.489834    0.706837
H      -1.271246    0.240588   -0.386242
H       0.431788    0.066802   -2.282174
H       2.401790   -1.080497   -1.852242
H       0.607895   -3.677129   -0.088198
H      -0.960822   -2.841359   -0.148443
H       0.034636   -4.821069   -2.229849
H      -1.413702   -3.810310   -2.408204
