17

O       0.005014    1.427556    0.079641
C       0.025842    0.022913   -0.083627
C      -1.368753   -0.504239   -0.036555
C      -2.498259    0.174355    0.123240
C      -3.671640   -0.779741    0.135638
O      -3.099728   -2.065557   -0.140579
C      -1.679212   -1.974114   -0.154201
C      -4.395769   -0.775182    1.413412
C      -4.993526   -0.755396    2.455763
H       0.911018    1.747137    0.047103
H       0.490066   -0.266221   -1.043361
H       0.622507   -0.468699    0.705499
H      -2.600255    1.240994    0.257752
H      -4.390033   -0.551794   -0.667077
H      -1.300988   -2.416112   -1.088469
H      -1.246194   -2.553779    0.677986
H      -5.521174   -0.743434    3.377310
