14

C       0.033354    1.424746    0.107559
O      -0.003453    0.015615    0.003828
C       0.639823   -0.617351    1.064666
C       0.556970   -2.096103    0.879888
N      -0.000479   -2.739302   -0.076013
O       0.223196   -4.105304    0.257532
C       0.916038   -4.179609    1.418516
O       1.274816   -5.152022    1.990936
O       1.135798   -2.870405    1.827813
H       1.066572    1.803226    0.107615
H      -0.492196    1.819872   -0.763092
H      -0.468274    1.776047    1.021749
H       1.706798   -0.339807    1.136118
H       0.187041   -0.367725    2.041016
