16

O       0.080354   -0.134963    0.469439
C      -0.007460    1.038938    0.221227
C       1.229740    1.909688   -0.076145
C       2.470180    1.154442   -0.190386
N       3.462920    0.573818   -0.288900
C      -1.324335    1.781203    0.144050
C      -1.981692    1.797724   -1.272429
O      -3.125010    1.079103   -0.796167
C      -2.586195    0.992858    0.541601
H       1.057343    2.483314   -0.995390
H       1.323299    2.653121    0.726216
H      -1.230996    2.775740    0.586577
H      -2.238646    2.793964   -1.651563
H      -1.436570    1.245718   -2.049281
H      -2.385795   -0.040088    0.841328
H      -3.234507    1.481427    1.276838
