20

C      -0.195240    1.307179   -0.096965
O       0.267041   -0.014870    0.065835
C       0.814962   -0.567023   -1.106095
C       1.262027   -1.998688   -0.795942
C       0.060321   -2.561821   -1.483257
C      -0.245556   -1.162752   -2.096565
C       0.339333   -1.237358   -3.509090
C       1.593920   -2.123617   -3.285019
N       1.392478   -2.832292   -1.999181
H       0.612154    1.980955   -0.423930
H      -1.015701    1.375952   -0.826971
H      -0.563442    1.642810    0.875405
H       1.552595    0.127935   -1.541946
H       1.780066   -2.307103    0.105556
H      -0.617137   -3.365109   -1.221007
H      -1.250096   -0.750636   -2.007550
H      -0.363023   -1.714089   -4.201292
H       0.590027   -0.250641   -3.912040
H       1.713935   -2.873074   -4.072242
H       2.518625   -1.540013   -3.242810
