19

C      -0.223474    1.481457   -0.112692
C       0.150294    0.000872   -0.004874
C       0.685815   -0.552695   -1.316205
O       1.018798   -1.927348   -1.120241
C       1.529828   -2.543902   -2.257230
C       1.790170   -4.049939   -2.103608
O       0.861987   -4.335296   -3.201466
C       0.514923   -3.013385   -3.330209
O      -0.311964   -2.538708   -4.039727
H       0.643098    2.094238   -0.384355
H      -0.995793    1.643545   -0.872249
H      -0.609606    1.856948    0.838962
H       0.908632   -0.146112    0.772762
H      -0.722826   -0.591075    0.291877
H      -0.061299   -0.458710   -2.116242
H       1.584905    0.001303   -1.634761
H       2.366094   -1.979210   -2.696811
H       2.792701   -4.411130   -2.336416
H       1.423072   -4.463689   -1.163145
