20

C      -0.074970    1.641598    0.175581
C       0.013706    0.119262    0.069582
N      -1.339351   -0.406990   -0.132108
C      -2.014096   -0.302203   -1.305208
O      -1.559852    0.154894   -2.334429
C       1.142198   -0.550227   -0.791423
C       2.146139   -0.165496    0.336168
C       0.886225   -0.714091    1.068040
C       0.899750   -1.862951    0.013040
H       0.890544    2.129285    0.310818
H      -0.528723    2.033325   -0.738554
H      -0.715358    1.922254    1.019082
H      -1.847853   -0.740461    0.672514
H      -3.047432   -0.698405   -1.224726
H       1.270337   -0.442947   -1.866882
H       3.035119   -0.795875    0.406491
H       2.408242    0.883147    0.467574
H       0.734478   -0.800527    2.147082
H      -0.031220   -2.397692   -0.167474
H       1.749427   -2.546495    0.072505
