19

O       0.003367    1.555950   -0.026231
C       0.067568    0.219253    0.413052
C      -1.269524   -0.499203    0.256846
C      -1.272942   -1.999134    0.479716
C      -0.655128   -2.779518   -0.703791
C      -0.694242   -4.221130   -0.497625
C      -0.738910   -5.405752   -0.299191
C      -2.502623    0.282432    0.411707
O      -2.007279   -0.050783   -0.898467
H      -0.482458    1.530226   -0.861966
H       0.847989   -0.342156   -0.126911
H       0.353397    0.232530    1.471196
H      -0.724743   -2.231292    1.400206
H      -2.299326   -2.347024    0.625966
H      -1.203254   -2.515604   -1.615687
H       0.382954   -2.465405   -0.865812
H      -0.771786   -6.454829   -0.139338
H      -3.424897   -0.221532    0.694247
H      -2.435795    1.336717    0.667770
