14

C       0.035948    1.444590   -0.040720
N       0.021293    0.002077    0.034965
N      -0.032934   -0.755807   -1.118648
C      -0.037177   -2.029609   -0.756231
C       0.014374   -2.136359    0.659005
C       0.049301   -0.820839    1.101211
N       0.098640   -0.896916    2.445929
N       0.093587   -2.239150    2.814131
N       0.043572   -2.965080    1.748344
H       0.947518    1.854338    0.407378
H       0.007057    1.709406   -1.097105
H      -0.836576    1.876124    0.461541
H      -0.076089   -2.798342   -1.512348
H       0.134850   -0.195441    3.164872
