23

C       0.974583    0.080066    0.257644
O       0.063533   -0.939847   -0.086358
C      -1.303773   -0.613084    0.108457
C      -2.152310   -1.621164   -0.689437
C      -1.928566   -1.430271   -2.195560
C      -1.888334   -3.075697   -0.271791
C      -1.651361   -0.600488    1.588880
C      -1.817833    0.647769    2.346464
O      -2.951780   -0.102111    1.911322
H       1.969562   -0.268733   -0.030073
H       0.757558    1.015028   -0.282176
H       0.977077    0.297104    1.335029
H      -1.507606    0.395866   -0.290604
H      -3.195716   -1.373698   -0.457375
H      -0.883064   -1.618815   -2.456312
H      -2.554082   -2.118968   -2.772098
H      -2.176638   -0.410440   -2.509680
H      -2.135830   -3.253384    0.779153
H      -2.498482   -3.758799   -0.870916
H      -0.837115   -3.337153   -0.422062
H      -1.358669   -1.495330    2.139035
H      -1.647571    0.656769    3.422272
H      -1.671415    1.603552    1.844202
