14

O       0.099692   -0.025948   -0.355682
C       0.003985    1.125670   -0.078452
C      -1.151114    2.058956    0.290444
C      -0.104560    3.130090    0.765548
C      -0.022018    3.295359    2.200449
C       0.045990    3.415988    3.393730
C       1.058338    2.265724    0.114470
C       2.263881    1.985277    0.861734
N       3.221121    1.746506    1.463793
H      -1.728431    2.369874   -0.585354
H      -1.833223    1.677880    1.051860
H      -0.213044    4.098337    0.273060
H       0.117778    3.525625    4.447999
H       1.318466    2.668943   -0.870872
