23

C      -0.115091    1.377534   -0.012140
O      -0.169349   -0.029454   -0.083982
C       0.728377   -0.578138   -1.042709
C       0.644195   -2.085363   -0.994111
C      -0.385931   -2.753309   -1.869514
C       1.073453   -2.824803   -2.240005
C       0.916615   -2.736767    0.362271
C       2.257780   -2.322516    0.979051
O      -0.152892   -2.511766    1.271732
H       0.887842    1.732641    0.270409
H      -0.385842    1.838826   -0.974015
H      -0.832482    1.695835    0.747521
H       0.468588   -0.214402   -2.050086
H       1.751710   -0.230625   -0.826525
H      -0.865452   -3.644821   -1.481308
H      -1.035187   -2.122727   -2.467492
H       1.418031   -2.245736   -3.091025
H       1.593490   -3.768178   -2.111438
H       0.935180   -3.823032    0.203296
H       2.269338   -1.253355    1.214600
H       2.413942   -2.868526    1.913031
H       3.093437   -2.537616    0.303891
H      -0.376968   -1.574757    1.195781
