16

C      -0.239156    1.600880    0.072968
N       0.008009    0.175358    0.039505
C      -0.993298   -0.587163   -0.131111
N      -0.894244   -1.953419   -0.183711
C       0.272561   -2.685483   -0.057606
C       1.563536   -2.304176    0.134890
O       2.313450   -3.460049    0.183985
C       1.426398   -4.452988    0.018882
N       0.198780   -4.069351   -0.130045
H       0.337912    2.099219   -0.715408
H      -1.300421    1.871079   -0.057271
H       0.103390    2.017524    1.027800
H      -2.025853   -0.233214   -0.254298
H      -1.729403   -2.498700   -0.317101
H       2.065373   -1.364772    0.246523
H       1.808453   -5.461539    0.025018
