17

O      -0.082192   -0.010213   -0.029513
C      -0.029360    1.186300   -0.000345
C      -1.100447    2.308048    0.088660
C       0.019287    3.349011   -0.186004
O       0.516194    4.020825    0.987641
C       1.514054    3.006477    1.165178
C       2.879602    3.270976    0.470386
C       2.507601    2.261762   -0.663767
C       1.081006    2.199928   -0.118442
H      -1.848764    2.230883   -0.705956
H      -1.605326    2.414827    1.051704
H      -0.116342    4.017621   -1.038514
H       1.530514    2.591783    2.176010
H       2.964362    4.309742    0.145106
H       3.758780    3.008825    1.062454
H       2.620068    2.599750   -1.696585
H       3.019735    1.302061   -0.554992
