18

O      -0.008226   -0.016042    0.198791
C      -0.007190    1.176258    0.024829
N      -1.131366    1.901194   -0.307439
C      -1.327744    3.320093   -0.057285
C      -1.632530    3.732037    1.419340
C      -0.159360    4.201560    1.579721
C       0.037688    4.054255    0.042630
C       1.186623    3.201106   -0.448702
O       1.147145    1.889179    0.128772
H      -1.956373    1.318619   -0.296361
H      -2.031248    3.702331   -0.801715
H      -2.353570    4.551696    1.477263
H      -1.966296    2.923222    2.073097
H      -0.009078    5.202227    1.988677
H       0.455291    3.496560    2.143851
H       0.033521    5.012276   -0.483225
H       1.161279    3.113504   -1.543065
H       2.156631    3.613144   -0.157931
