19

C      -0.059021    1.450678   -0.107504
C       1.303576    0.796735    0.006103
C       2.189420    0.324029   -1.144763
C       1.482705   -0.926655   -1.656776
C       0.881977   -2.011882   -0.739364
O       0.961125   -2.011492    0.675318
C      -0.009897   -1.050840    1.153342
C       0.036132   -0.036910    0.034040
C       0.029217   -0.893767   -1.228341
H      -0.375807    2.053746    0.737942
H      -0.405656    1.823578   -1.067245
H       1.797695    0.952155    0.959693
H       2.282231    1.056385   -1.957348
H       3.203659    0.122613   -0.782599
H       1.739765   -1.294560   -2.647402
H       0.832801   -3.013183   -1.155076
H      -0.986705   -1.540165    1.278968
H       0.331240   -0.674052    2.121085
H      -0.838823   -0.975608   -1.872870
