10

F       0.047059    0.097118    0.185477
C       0.023805    1.411474    0.047857
N      -1.126144    1.956695   -0.029719
O      -1.172780    3.332672   -0.174333
N      -0.035338    4.110037   -0.235186
C       1.107146    3.532193   -0.154357
C       1.310012    2.097205   -0.000796
N       2.475452    1.576925    0.074414
H       1.973169    4.185106   -0.207070
H       2.407306    0.561950    0.179252
