16

N       0.051234   -0.926897    0.769313
C       0.052082    0.156155    0.368262
C      -0.007154    1.541586   -0.140967
O      -0.839584    2.356580    0.666885
C      -0.033683    2.903946    1.715445
C       1.326463    3.209779    1.069396
C       2.556814    2.423178    1.569821
O       2.458123    1.488223    0.468529
C       1.388612    2.235404   -0.126947
H      -0.449840    1.521964   -1.140980
H      -0.557498    3.785304    2.089720
H       0.069147    2.179146    2.535725
H       1.474937    4.268637    0.862146
H       3.501275    2.976774    1.535252
H       2.458819    1.926652    2.541666
H       1.656644    2.621710   -1.114594
