19

C      -0.026982    1.519919   -0.048763
C      -0.090193    0.025414    0.091811
C      -1.320321   -0.749847   -0.356682
C      -1.082605   -2.188375    0.155820
C      -0.208245   -2.033602    1.421360
C       0.573361   -0.750670    1.170832
O       1.128195   -0.692662   -0.164523
C       1.351638   -0.161607    2.222463
C       1.986397    0.306418    3.130366
H       0.876325    1.913813    0.421666
H      -0.019360    1.802661   -1.106959
H      -0.899920    1.988070    0.417873
H      -2.207381   -0.299468    0.105708
H      -1.460401   -0.706964   -1.441808
H      -2.015120   -2.719925    0.358832
H      -0.534448   -2.757669   -0.597221
H      -0.816129   -1.901189    2.323802
H       0.451044   -2.889671    1.590607
H       2.555043    0.723229    3.924523
