16

O      -0.113493   -0.009320   -0.386488
C      -0.040733    1.185003   -0.204211
C       1.222367    1.899388   -0.002703
C       1.361995    3.220125    0.169070
C       2.798431    3.630431    0.339443
C       3.580727    2.370493   -0.108110
C       2.571629    1.187488    0.035090
C       2.748721    0.454408    1.294120
N       2.909448   -0.096915    2.297141
H      -0.947082    1.828836   -0.192920
H       0.534329    3.921424    0.202714
H       3.057169    4.518213   -0.246533
H       2.992697    3.887015    1.390042
H       3.851175    2.461743   -1.163347
H       4.497188    2.206081    0.459626
H       2.663664    0.463463   -0.779922
