19

C       0.089378    1.372080   -0.007660
O      -0.040186   -0.040494    0.054529
C      -1.358012   -0.590261   -0.025047
C      -2.120448   -0.143661   -1.271432
C      -1.173340   -2.120711    0.080020
C      -1.782988   -2.496538    1.405007
C      -2.307313   -1.456429    2.064477
C      -2.149899   -0.224676    1.268702
O      -2.547402    0.887248    1.541653
H       1.151085    1.578767    0.149032
H      -0.201031    1.769437   -0.989269
H      -0.497735    1.878471    0.764636
H      -1.520852   -0.321196   -2.169685
H      -3.056092   -0.704391   -1.362323
H      -2.377406    0.916702   -1.211573
H      -1.655614   -2.660828   -0.743473
H      -0.107676   -2.367810    0.042097
H      -1.785002   -3.522359    1.759268
H      -2.796585   -1.470744    3.029895
