16

N      -0.238053    1.299314    0.420620
C      -0.048711    0.102637    0.088447
O      -1.106261   -0.769803    0.213064
C      -0.915167   -2.075291   -0.158173
O       0.119564   -2.512994   -0.580502
C      -2.199891   -2.849909    0.029449
C      -1.994958   -4.362825   -0.094859
C      -3.307458   -5.097405   -0.254451
O      -3.653440   -6.042462    0.403317
H       0.617144    1.836279    0.283123
H       0.852041   -0.375258   -0.296401
H      -2.636547   -2.571371    0.993539
H      -2.905271   -2.484115   -0.729902
H      -1.388924   -4.559097   -0.989397
H      -1.458395   -4.772235    0.764145
H      -3.959636   -4.693117   -1.065807
