14

N       0.075954   -1.163327   -0.133028
C       0.075686   -0.010607   -0.040274
C       0.050650    1.407146    0.135910
O       0.208164    2.251048   -1.005052
C       1.134312    2.427926    0.058217
C       0.431677    3.266086    1.173906
O      -0.460205    4.282527    0.714363
C      -1.591642    3.368456    0.739538
C      -0.695688    2.211851    1.236302
H       2.187037    2.315931   -0.175551
H       1.060306    3.555543    2.018447
H      -2.342210    3.695249    1.466876
H      -2.045215    3.247524   -0.247469
H      -0.952597    1.667202    2.140917
