18

O      -0.023428    1.398661   -0.141586
C       0.016457   -0.003680   -0.001454
C       0.367343   -0.830412   -1.270271
C      -0.925572   -1.668628   -1.066062
C      -1.379331   -0.700435    0.065833
C      -1.430023   -1.300942    1.465673
O      -0.066442   -1.573935    1.789134
C       0.683606   -0.464839    1.314435
H       0.876663    1.714463   -0.278087
H       0.326998   -0.202061   -2.163401
H       1.316060   -1.374314   -1.256195
H      -1.589904   -1.728986   -1.929936
H      -0.732772   -2.679704   -0.699807
H      -2.222982   -0.055769   -0.181534
H      -1.863870   -0.586306    2.184147
H      -1.980277   -2.243921    1.532125
H       1.723623   -0.788360    1.206262
H       0.639204    0.378216    2.023110
