17

C       0.055155    1.446557   -0.034282
N      -0.053787    0.016628    0.118844
C      -1.236883   -0.673896    0.066784
N      -1.114418   -2.009720   -0.023479
C      -2.239606   -2.724361   -0.047407
C      -3.520888   -2.196350    0.010117
C      -3.632538   -0.806555    0.095911
O      -4.877735   -0.271035    0.147541
C      -2.482621   -0.024776    0.122343
H       1.110993    1.723745   -0.016875
H      -0.380433    1.813606   -0.976356
H      -0.436748    1.974527    0.792345
H       0.749390   -0.553911   -0.090088
H      -2.108495   -3.802155   -0.120080
H      -4.404184   -2.820609   -0.014611
H      -4.807268    0.688070    0.206096
H      -2.552422    1.055517    0.188373
