18

C       0.414478    1.461948   -0.431597
C       0.076318    0.054693   -0.003812
N       1.180650   -0.917120    0.128940
C       0.423153   -0.526535    1.322597
C       1.222015    0.223969    2.364447
C       2.407891   -0.450702    2.979221
N       2.594063    0.660914    2.048165
C       0.438561    1.140880    3.166869
N      -0.224172    1.840208    3.805792
H       1.314331    1.833912    0.061720
H       0.574908    1.503148   -1.513858
H      -0.410271    2.138352   -0.185349
H      -0.844120   -0.333875   -0.437611
H       0.911089   -1.841256   -0.193442
H      -0.282833   -1.239786    1.743650
H       2.666672   -0.241871    4.012321
H       2.616737   -1.460415    2.634915
H       2.801748    0.278616    1.123538
