21

C       0.010230    1.473164    0.292485
C      -0.097510   -0.012484   -0.096071
C      -1.498769   -0.527000   -0.080880
C      -2.277552   -1.011828   -1.060018
C      -3.570382   -1.394858   -0.346594
C      -3.772727   -0.161948    0.595471
C      -2.397753   -0.653978    1.159017
C      -2.936301   -2.106755    0.920867
O      -3.819098   -2.520323    1.934041
H       1.054278    1.801473    0.291705
H      -0.546101    2.100869   -0.410472
H      -0.396545    1.652192    1.292977
H       0.331153   -0.164056   -1.093693
H       0.517471   -0.601790    0.599108
H      -2.047298   -1.157206   -2.106973
H      -4.384218   -1.841708   -0.918788
H      -3.795251    0.823841    0.125416
H      -4.593494   -0.290932    1.303137
H      -2.010982   -0.345700    2.130552
H      -2.178714   -2.870926    0.701287
H      -4.196150   -3.367167    1.675504
