21

C      -0.111404    1.512018    0.109254
C      -0.122158   -0.010095    0.264779
C      -1.469324   -0.620811   -0.177909
O      -1.776823   -0.246645   -1.496031
C      -1.461816   -2.142410   -0.064816
O      -1.640741   -2.812021   -1.066484
C      -1.227117   -2.849252    1.267869
C      -2.249563   -2.430199    2.335198
O      -1.265190   -4.240107    1.083655
H       0.861447    1.924278    0.392268
H      -0.319011    1.789867   -0.926288
H      -0.872701    1.979015    0.743982
H       0.675380   -0.454875   -0.342952
H       0.075193   -0.283112    1.308154
H      -2.254644   -0.243733    0.499135
H      -1.842753   -1.075051   -1.996056
H      -0.223096   -2.549842    1.613844
H      -3.269468   -2.618400    1.987083
H      -2.079554   -3.029722    3.232479
H      -2.151753   -1.373716    2.601051
H      -1.413394   -4.378281    0.135433
