21

C       0.203501    1.283032   -0.268271
C       0.181419   -0.171042    0.216414
C      -1.219101   -0.739695    0.316562
C      -2.085383   -1.137619   -0.876126
C      -1.245698   -1.880773   -1.906459
O      -0.716270   -2.778734   -0.890856
C      -1.571932   -2.181426    0.095650
C      -2.215915   -3.132471    1.068843
O      -2.958333   -2.472595    2.078213
H       1.227078    1.666274   -0.326556
H      -0.247354    1.373644   -1.262145
H      -0.359134    1.936388    0.407836
H       0.779948   -0.802722   -0.447436
H       0.660438   -0.236397    1.202143
H      -1.843000   -0.287116    1.086230
H      -3.086550   -0.757346   -1.028500
H      -1.843623   -2.440675   -2.634124
H      -0.452997   -1.331891   -2.428101
H      -2.921858   -3.784361    0.543642
H      -1.429469   -3.781597    1.486918
H      -2.331822   -2.017856    2.650029
