14

O      -0.683813    0.606614    0.650501
C       0.087061    0.894011   -0.227631
C       1.294044    1.797871   -0.026756
C       1.356592    2.916303   -1.071629
C       2.651133    3.743816   -1.204198
O       2.820373    3.278085   -2.582382
C       1.697545    2.495656   -2.508946
O       1.258755    1.764968   -3.337689
H      -0.034405    0.506879   -1.261346
H       1.256253    2.204989    0.987548
H       2.194251    1.172436   -0.110989
H       0.453736    3.532750   -1.036678
H       2.543641    4.829148   -1.171959
H       3.489256    3.419206   -0.583610
