22

C      -0.252270    1.531225    0.660681
C      -0.102465    0.014326    0.535650
C       0.330574   -0.521283   -0.826577
C       1.793667   -0.818844   -0.787622
C       2.331022   -0.480261    0.600417
C       3.053788    0.859578    0.747768
C       0.989858   -0.743595    1.342554
C       0.715064   -2.165796    0.808743
N       0.803889   -1.920791   -0.659045
H       0.602598    2.085467    0.272052
H      -1.133710    1.864605    0.101743
H      -0.399080    1.825256    1.705366
H      -1.075172   -0.422739    0.799472
H      -0.205700   -0.293148   -1.740866
H       2.422416   -0.827518   -1.670888
H       3.041328   -1.259170    0.909484
H       2.506461    1.697688    0.315226
H       3.244427    1.088074    1.801711
H       4.025444    0.814696    0.243455
H       0.989189   -0.605585    2.423709
H       1.464584   -2.903987    1.108813
H      -0.277237   -2.550057    1.062559
