13

C       0.004054   -1.188818   -0.116186
C       0.047186    0.010746   -0.037423
C       0.062522    1.420346    0.115581
O       0.206618    2.283794   -1.022439
C       1.134341    2.432578    0.041155
C       0.467999    3.244384    1.208275
N      -0.905882    3.596460    0.777144
C      -0.614290    2.242086    1.286368
H      -0.027093   -2.246939   -0.201300
H       2.190806    2.327667   -0.173884
H       0.989183    3.774119    1.993378
H      -1.331661    4.111773    1.548481
H      -1.115356    1.806513    2.139661
