14

C       0.715058    1.045276    0.878390
C      -0.018501   -0.190847    0.328857
O      -0.342699   -1.092799    1.346084
C      -1.336021    0.250816   -0.369278
O      -1.432693    1.210465   -1.079796
C       0.838462   -0.911130   -0.714156
O       1.092014   -2.088448   -0.609334
C       1.348307   -0.124960   -1.839681
N       1.775581    0.485563   -2.723522
H       1.693897    0.764836    1.274896
H       0.831101    1.800259    0.098704
H       0.118920    1.465111    1.691745
H       0.034740   -1.951951    1.098279
H      -2.182893   -0.420557   -0.115614
