19

C      -0.047371    1.266158   -0.598165
C      -0.063548   -0.224623   -0.247801
C      -1.411221   -0.666120    0.297860
O      -2.484858   -0.543017   -0.681012
C      -2.663494   -1.972793   -0.772147
C      -2.208288   -2.540563   -2.033285
C      -1.769461   -3.036121   -3.038696
C      -1.672508   -2.194032    0.421059
O      -0.625861   -3.101056    0.276360
H       0.916406    1.561611   -1.022913
H      -0.828227    1.493350   -1.329374
H      -0.226840    1.884009    0.288731
H       0.178621   -0.816196   -1.138255
H       0.701521   -0.456319    0.503451
H      -1.662709   -0.091231    1.198860
H      -3.704426   -2.257389   -0.580079
H      -1.420314   -3.462232   -3.947404
H      -2.196331   -2.455993    1.342642
H      -0.379650   -3.132954   -0.657420
