21

C      -0.684932    1.414706   -0.117633
C      -0.045819    0.022890   -0.051725
C       0.857168   -0.322636   -1.240226
C       2.170765    0.388716   -1.412339
C       2.141774   -0.965586   -0.747479
C       2.119002   -0.953327    0.772491
O       2.916027    0.085141    1.402907
C       1.737691    0.795006    1.836051
C       0.799620   -0.265515    1.216285
H       0.070392    2.203845   -0.178224
H      -1.323013    1.504607   -1.002695
H      -1.307567    1.609783    0.762214
H      -0.861541   -0.711713   -0.056944
H       0.370753   -0.692841   -2.137274
H       2.578387    0.439112   -2.416018
H       2.417617    1.244443   -0.794576
H       2.585923   -1.812712   -1.257280
H       2.357287   -1.935098    1.194706
H       1.689860    0.866005    2.929744
H       1.687696    1.808520    1.419006
H       0.213981   -0.798520    1.967047
