15

O      -0.441998    0.049521    0.242392
C      -0.103859    1.176992    0.117194
C      -0.514782    2.630104    0.479492
C       0.967387    2.779967    0.956345
C       1.051071    2.059533   -0.429503
N      -0.102075    2.901370   -0.961986
C       0.091742    4.251005   -1.475248
C       0.886046    5.267757   -0.746579
N       1.496643    6.091784   -0.212709
H      -1.431045    3.029189    0.909488
H       1.352490    3.794626    0.982851
H       1.273505    2.212796    1.839638
H       1.919114    1.808445   -1.035438
H       0.540610    4.151574   -2.470153
H      -0.905389    4.678826   -1.629951
