20

C       0.330913    1.336820    0.162519
C      -0.217953   -0.094966   -0.004212
C      -1.680187   -0.112758   -0.025335
C      -2.881862   -0.114873   -0.061733
C       0.344432   -0.730918   -1.271515
N       1.711460   -1.265712   -1.187552
C       0.583799   -2.183634   -1.468325
C       0.364698   -3.256626   -0.426838
O       1.419132   -4.204447   -0.453639
H       1.423560    1.308050    0.193978
H       0.019292    1.971197   -0.673061
H      -0.037783    1.789116    1.086394
H       0.128855   -0.685101    0.851198
H      -3.943436   -0.124925   -0.082731
H       0.082663   -0.175407   -2.171867
H       2.231549   -1.061287   -2.035795
H       0.496914   -2.546160   -2.491426
H       0.258187   -2.811235    0.571788
H      -0.555630   -3.808693   -0.642802
H       2.230800   -3.698299   -0.329205
