18

C       0.079491    1.566899    0.229831
C       0.012544    0.044060    0.020940
C       0.615929   -0.398652   -1.274911
C       0.019380   -0.687062   -2.485147
C      -1.386520   -0.675064   -2.984951
O      -1.452142   -1.550636   -4.104252
N       1.060934   -0.997108   -3.293023
N       2.234191   -0.928182   -2.642649
N       1.966300   -0.555868   -1.423909
H       1.117196    1.910429    0.198576
H      -0.472691    2.098876   -0.552026
H      -0.347330    1.847797    1.197690
H       0.546576   -0.455798    0.835903
H      -1.030306   -0.291197    0.074093
H      -2.065519   -0.989132   -2.178025
H      -1.678899    0.347501   -3.273007
H      -2.306924   -1.435321   -4.529424
H       1.013121   -1.326409   -4.244393
