18

C      -0.016249    1.556292   -0.036943
O       1.354934    1.984274   -0.038257
C       2.180133    0.822876    0.056400
C       1.368405   -0.259985   -0.661350
C       0.023918    0.017132    0.034404
C       0.147378   -0.449290    1.494824
O       1.123440    0.301649    2.201020
C       2.368397    0.430759    1.530846
H      -0.536032    2.000092    0.819412
H      -0.497333    1.905973   -0.959602
H       3.146170    1.052590   -0.402905
H       1.325932   -0.069499   -1.737678
H       1.741691   -1.274094   -0.494915
H      -0.837270   -0.453997   -0.446221
H      -0.789045   -0.297267    2.041261
H       0.383874   -1.526865    1.521573
H       2.953936   -0.503449    1.590486
H       2.912463    1.212865    2.067640
