16

N      -0.091082   -1.181038   -0.107829
C      -0.063330   -0.026374   -0.056387
C      -0.014457    1.430812    0.021311
C      -0.531005    2.006373    1.392847
C       0.707153    2.767164    1.844019
C       1.405871    3.423543    0.616959
O       2.729608    3.214239    1.212999
C       1.991159    1.969643    1.466672
C       1.416811    1.986302    0.020218
H      -0.591090    1.830912   -0.819130
H      -1.399710    2.654476    1.251069
H      -0.814660    1.212133    2.087145
H       0.697592    3.313567    2.785465
H       1.207850    4.376064    0.124575
H       2.499740    1.167850    2.000890
H       2.079130    1.762681   -0.813481
