18

C      -0.104577    1.611928   -0.103218
C      -0.106034    0.083273   -0.082264
C       0.813595   -0.531535   -1.163899
N       2.193473   -0.096937   -0.979885
C       3.128579   -0.941614   -0.928823
O       3.084938   -2.294307   -0.985340
C       1.803244   -2.911165   -0.848125
C       0.611436   -2.039034   -1.222990
O      -0.445198   -2.552933   -1.501738
H       0.906570    2.001812    0.033886
H      -0.485304    1.991683   -1.057712
H      -0.741690    2.008674    0.692918
H       0.222404   -0.278480    0.900382
H      -1.114441   -0.307438   -0.249158
H       0.474616   -0.141695   -2.134736
H       4.164072   -0.618243   -0.839820
H       1.800188   -3.813028   -1.463709
H       1.670228   -3.216705    0.200243
