17

C      -0.038799    1.519682   -0.265873
C      -0.029545    0.106847    0.329549
C      -1.395804   -0.531506    0.263682
N      -1.799405   -1.119800   -1.006521
C      -1.575880   -2.034192    0.150036
C      -0.454973   -2.934811    0.069200
C       0.476050   -3.692145    0.030281
C      -2.753103   -2.577962    0.796404
N      -3.708995   -2.993647    1.297479
H       0.957393    1.967852   -0.215649
H      -0.347412    1.494038   -1.315287
H      -0.728118    2.178083    0.274067
H       0.682742   -0.525306   -0.207865
H       0.292412    0.137075    1.377378
H      -2.169561   -0.038233    0.851268
H      -2.799180   -1.019454   -1.168262
H       1.297237   -4.364670   -0.014618
