16

C      -0.486045    0.509435    1.085597
C       0.443210    0.404204   -0.120665
N       0.981528   -0.948021   -0.226489
C       2.020182   -1.127653   -0.896651
O       2.771359   -0.219371   -1.584779
C       3.849876   -0.915153   -2.150682
C       3.721215   -2.195234   -1.815593
O       4.446560   -3.279450   -2.091568
O       2.600763   -2.373577   -1.042291
H      -1.301543   -0.215104    1.005680
H       0.057778    0.301119    2.011910
H      -0.916476    1.513525    1.155964
H      -0.115545    0.644630   -1.036691
H       1.246422    1.151160   -0.045219
H       4.562383   -0.361605   -2.730444
H       4.066041   -4.028109   -1.616441
