17

C      -0.060924    1.444963   -0.089311
C      -0.069890   -0.054873   -0.085745
N       0.745886   -0.792612   -1.210455
C       0.042285   -1.925167   -0.587725
N       0.718257   -2.672334    0.191512
C       0.266241   -2.280473    1.557529
C      -0.381263   -0.905282    1.284479
C      -1.134202   -1.055009    0.016860
O      -2.469717   -0.981260   -0.304439
H       0.941670    1.828716    0.119338
H      -0.378284    1.830717   -1.064518
H      -0.749210    1.834079    0.665742
H       0.251810   -0.478370   -2.054260
H      -0.435819   -2.966645    2.058378
H       1.175108   -2.239163    2.166033
H      -0.748988   -0.271990    2.089474
H      -2.939932   -1.677563    0.168375
