23

C      -1.730451    0.089445    1.507387
C      -0.649709    0.060217    0.446318
C       0.044856    1.322143   -0.007664
C       0.832483    0.251338    0.707208
C       1.481116    0.512312    2.059946
C       2.916487    1.030758    1.857507
O       0.724131    1.495902    2.765558
C       1.488047   -0.776558    2.898203
O       1.984581   -0.429679    4.191716
H      -1.497543    0.811776    2.290181
H      -2.694087    0.358155    1.059097
H      -1.855308   -0.893924    1.977306
H      -0.851833   -0.654749   -0.349089
H       0.218661    1.485124   -1.065916
H      -0.161772    2.220058    0.563846
H       1.476797   -0.353558    0.073512
H       2.889319    1.978388    1.314154
H       3.401248    1.191298    2.824068
H       3.521489    0.317700    1.287207
H       0.992875    1.406514    3.689302
H       0.465251   -1.166893    2.964742
H       2.122254   -1.538587    2.421942
H       1.762723   -1.134159    4.806049
