15

C       0.001401    1.521894   -0.067787
C       0.000229    0.026196    0.001512
C      -1.110789   -0.703342    0.170829
F      -2.335088   -0.202654    0.297028
N      -1.091605   -2.080310    0.232232
C       0.116852   -2.717278    0.114492
N       1.238371   -2.123679   -0.049627
C       1.272083   -0.708959   -0.119609
N       2.363476   -0.058332   -0.283057
H       0.643377    1.933126    0.717450
H       0.433247    1.852912   -1.017369
H      -1.005146    1.931577    0.035303
H      -1.954115   -2.583999    0.360932
H       0.069168   -3.802670    0.170991
H       3.134419   -0.725458   -0.346105
