17

C      -0.145742    1.537997   -0.059013
C      -0.004618    0.021249   -0.028505
C       1.171508   -0.529204   -0.888274
C       2.034605   -0.652317    0.393701
C       0.727252   -0.556265    1.244000
C       0.741088    0.208287    2.473070
C       0.759021    0.859273    3.485119
H       0.814164    2.036123    0.113719
H      -0.522710    1.865012   -1.034070
H      -0.839198    1.887025    0.711921
H      -0.976883   -0.442256   -0.218758
H       0.943830   -1.503853   -1.328527
H       1.545136    0.128334   -1.677193
H       2.635106   -1.555021    0.523098
H       2.674479    0.218317    0.551778
H       0.348599   -1.564113    1.446399
H       0.774954    1.427127    4.381988
