16

C      -0.089891    1.527364    0.078620
C      -0.018187    0.029712    0.074486
N      -1.263773   -0.796804    0.142106
C      -0.324946   -1.924286    0.530686
C       0.769585   -0.895417    1.030870
O       1.909771   -0.973987    0.150141
C       0.942817   -0.736587   -0.927994
C       0.254803   -2.113085   -0.884860
O       0.205042   -3.014411   -1.664989
H       0.916876    1.955816    0.077781
H      -0.623005    1.890929   -0.805752
H      -0.615533    1.893278    0.967410
H      -1.784798   -0.506637    0.969921
H      -0.711465   -2.777953    1.079239
H       0.998206   -0.758072    2.087994
H       1.364675   -0.336306   -1.846275
