19

C       0.328209    1.478583    0.240479
C      -0.163824    0.065008   -0.099550
C       0.459156   -0.486348   -1.358096
C       0.207651    0.157037   -2.722470
C       0.745507   -0.862850   -3.751167
C       0.725773   -2.213931   -3.024840
O       0.614897   -3.303476   -3.525556
C       0.781356   -1.918405   -1.548953
O       1.809304   -0.950577   -1.247065
H       1.416634    1.491648    0.350557
H       0.057590    2.199309   -0.537578
H      -0.112448    1.824308    1.179698
H       0.069239   -0.614422    0.726915
H      -1.254665    0.064671   -0.217094
H      -0.869002    0.312329   -2.854682
H       0.692665    1.133942   -2.800082
H       0.160423   -0.920303   -4.670419
H       1.780188   -0.638475   -4.029389
H       0.608259   -2.695437   -0.811012
