21

C      -0.131217    1.572181   -0.015527
C      -0.075036    0.044951   -0.007708
C      -1.435037   -0.553457   -0.360102
C       1.178345   -0.616214   -0.648610
C       2.119283   -0.264392    0.553785
C       2.614398   -1.716183    0.691311
C       1.129718   -1.861761    0.307379
C       0.704646   -0.626435    1.158719
O       0.356094   -0.727565    2.493942
H       0.831247    2.026455    0.237582
H      -0.424912    1.947327   -1.002564
H      -0.876108    1.940457    0.700682
H      -1.767017   -0.215169   -1.348538
H      -1.417314   -1.646429   -0.369467
H      -2.195535   -0.240732    0.364556
H       1.475362   -0.634836   -1.696460
H       2.676109    0.663409    0.689483
H       3.347821   -2.056464   -0.046347
H       2.893400   -2.046869    1.695628
H       0.548605   -2.770983    0.155815
H       0.344332    0.157514    2.874345
