15

C      -0.011024    1.453604   -0.020850
C       0.027306   -0.046802    0.004787
N       0.117474   -0.672273   -1.177484
C       0.146176   -2.005420   -1.088592
O       0.233230   -2.684559   -2.236098
N       0.096892   -2.735855    0.013735
C       0.010674   -1.998100    1.130757
N      -0.031510   -2.660372    2.304364
N      -0.029967   -0.650606    1.188142
H       0.896076    1.841207   -0.495191
H      -0.856204    1.795184   -0.626380
H      -0.095991    1.851067    0.990279
H       0.258827   -2.016818   -2.935916
H      -0.065428   -3.664017    2.301385
H      -0.158730   -2.141716    3.154445
