20

C       0.020695    1.624243    0.140206
C       0.045145    0.093159    0.054202
C       0.677657   -0.467840   -1.238381
C       1.278550   -1.820881   -0.801557
C       1.544231   -1.643330    0.686389
C       2.231107   -0.401869    1.123298
N       0.764884   -0.500125    1.207835
C      -1.402076   -0.386374    0.218846
O      -2.103822   -0.794121   -0.669630
H       1.040411    2.020663    0.131442
H      -0.521220    2.047922   -0.710389
H      -0.463374    1.958640    1.063101
H      -0.077313   -0.578031   -2.018632
H       1.448862    0.211048   -1.612575
H       0.551094   -2.626603   -0.945051
H       2.177076   -2.088204   -1.365644
H       1.579883   -2.526936    1.317145
H       2.732333   -0.366881    2.086067
H       2.676627    0.236042    0.364235
H      -1.764535   -0.311857    1.267348
