21

C       0.203140    1.403029   -0.094585
C      -0.020538   -0.097750   -0.301382
C      -1.425545   -0.598205    0.109858
C      -2.537406    0.003040   -0.756946
C      -1.422951   -2.120123    0.108503
C      -2.476868   -2.968423   -0.499899
O      -1.230928   -2.794907   -1.151841
C      -0.670415   -2.802784    1.216700
O      -0.327055   -2.272512    2.241823
H       1.236008    1.673397   -0.334688
H      -0.447288    2.012452   -0.729159
H       0.019533    1.689513    0.946921
H       0.151074   -0.363796   -1.351602
H       0.727846   -0.643430    0.283361
H      -1.588240   -0.306883    1.155219
H      -2.476226    1.093594   -0.763322
H      -2.454703   -0.342338   -1.793307
H      -3.530628   -0.261888   -0.382171
H      -2.664945   -3.967116   -0.105304
H      -3.330709   -2.484860   -0.966570
H      -0.457742   -3.873775    0.999395
