16

C      -0.033071    1.349219   -0.052386
O      -0.008833   -0.074608   -0.090229
C       0.603135   -0.623850   -1.141952
N       0.672608   -1.936256   -1.254392
N       1.362749   -2.072110   -2.443664
C       1.677162   -3.374882   -2.979330
C       1.638985   -0.855906   -2.926783
O       2.305676   -0.696016   -4.077081
N       1.181845    0.103351   -2.143853
H       0.980317    1.762118   -0.028209
H      -0.557674    1.759689   -0.920901
H      -0.564977    1.610522    0.863318
H       0.758326   -3.937561   -3.165867
H       2.220460   -3.242231   -3.915518
H       2.296776   -3.933516   -2.272471
H       2.386085    0.254931   -4.221337
