14

C       0.106216    1.367669    0.219077
O      -0.085927   -0.010525   -0.009584
C       0.549995   -0.514352   -1.166393
C       2.065277   -0.673668   -1.040233
C      -0.138187   -1.843396   -1.467358
O       0.327744   -2.703941   -2.166107
H       1.150761    1.613373    0.455929
H      -0.202363    1.967380   -0.651595
H      -0.517395    1.640099    1.073823
H       0.323682    0.141127   -2.030224
H       2.437116   -1.235413   -1.900421
H       2.571933    0.293802   -1.006897
H       2.308524   -1.229859   -0.130269
H      -1.136165   -1.937209   -0.986314
