20

C      -0.065321    1.511757    0.041657
N       0.134381    0.073484   -0.110769
C       0.692808   -0.554684   -1.280303
C      -0.052345   -1.657593   -1.971422
C       1.783612    0.324746   -1.924221
C       2.526493    0.244957   -0.565342
O       3.636700    0.540846   -0.222119
C       1.429817   -0.579715    0.079176
C       1.606809   -1.617957    1.145598
H       0.716574    2.149550   -0.391241
H      -1.021470    1.780123   -0.418466
H      -0.131710    1.736556    1.109999
H      -0.763237   -1.249085   -2.699330
H       0.633679   -2.318058   -2.511856
H      -0.618668   -2.248152   -1.246818
H       2.368035   -0.190397   -2.693157
H       1.487275    1.305719   -2.304875
H       1.750506   -1.147870    2.124508
H       0.721881   -2.256797    1.206887
H       2.484118   -2.240264    0.944391
