25

C       0.043807    1.543581    0.010005
C       0.123404    0.025305    0.000895
O       1.184977   -0.554668   -0.012537
C      -1.209595   -0.715858    0.009674
C      -1.057303   -2.237696    0.000129
C      -2.365895   -3.065541    0.008175
C      -3.216655   -2.766579   -1.240676
C      -1.974487   -4.555396   -0.003507
C      -3.192675   -2.780019    1.276131
H       1.048722    1.967210    0.002188
H      -0.514148    1.903054   -0.862004
H      -0.496314    1.893342    0.897067
H      -1.771186   -0.368707    0.887615
H      -1.787762   -0.359460   -0.853683
H      -0.465261   -2.518751   -0.878602
H      -0.448684   -2.528028    0.864401
H      -2.645299   -2.940839   -2.159422
H      -4.099784   -3.414203   -1.271525
H      -3.573605   -1.731628   -1.258059
H      -1.371263   -4.812068    0.874125
H      -2.863164   -5.195934    0.001549
H      -1.388132   -4.802630   -0.895169
H      -3.549113   -1.745346    1.311372
H      -4.075129   -3.428016    1.316879
H      -2.603938   -2.964036    2.181911
