16

N      -0.127109   -1.131059   -0.608839
C      -0.135078   -0.028470   -0.261826
C      -0.146410    1.351255    0.207017
C      -0.448532    1.500027    1.728185
N       0.056753    2.817979    2.096715
C       1.307631    2.987981    1.330203
C       1.217449    2.077695    0.048514
C       1.549015    4.394573    1.013396
N       1.725228    5.504130    0.743940
H      -0.915268    1.894158   -0.353335
H      -1.509433    1.407470    1.965161
H       0.093419    0.727431    2.285494
H      -0.608256    3.533954    1.820791
H       2.142168    2.639259    1.949693
H       2.043564    1.364912    0.033794
H       1.259052    2.659139   -0.872732
