13

O      -0.184990   -0.100262    0.134673
C      -0.053568    1.085808    0.141897
O      -1.099763    2.004802    0.057146
N      -0.644196    3.359773    0.258424
C       0.629678    3.199876    0.305139
C       1.966063    3.694889    0.790538
C       2.309237    2.859437    2.023061
C       2.411948    2.224549    0.670808
N       1.065897    1.912315    0.146432
H       2.485108    4.598632    0.511801
H       3.256236    3.117432    2.488153
H       1.528361    2.556170    2.712510
H       3.295021    1.793265    0.223262
