21

C       0.154669    1.492393    0.076389
C      -0.006531   -0.008076   -0.010777
C      -0.056258   -0.579627   -1.230052
C      -0.181670   -1.940286   -1.753915
C       0.331662   -3.122861   -1.357804
C       1.072473   -3.421274   -0.142370
C       0.760235   -2.978573    1.081389
C      -0.444081   -2.146430    1.411461
C      -0.180747   -0.634235    1.352067
H       1.043559    1.756948    0.664135
H       0.250586    1.954903   -0.908732
H      -0.699834    1.952600    0.590668
H      -0.015591    0.137405   -2.051678
H      -0.672002   -1.955064   -2.727301
H       0.220332   -3.953387   -2.053840
H       1.918584   -4.098032   -0.253337
H       1.403494   -3.255944    1.914378
H      -1.264399   -2.390493    0.728688
H      -0.782672   -2.390836    2.425055
H       0.700418   -0.396460    1.964465
H      -1.010955   -0.103361    1.844607
