23

C      -0.085093    1.422423    0.120361
C      -0.006446   -0.069721    0.468158
C      -1.359025   -0.734176    0.383983
O      -1.893663   -0.982208   -0.928391
C      -1.624630   -2.108690   -0.078508
C      -0.543587   -3.062845   -0.529041
C      -2.892987   -2.782724    0.410855
O      -2.578643   -3.563750    1.544307
C      -3.679723   -4.293736    2.030333
H       0.899052    1.895158    0.188555
H      -0.460498    1.559263   -0.898126
H      -0.759679    1.953876    0.800535
H       0.699681   -0.566035   -0.202968
H       0.377050   -0.197859    1.488792
H      -2.096428   -0.309204    1.071206
H       0.355650   -2.541348   -0.858345
H      -0.286930   -3.742376    0.288142
H      -0.908945   -3.667227   -1.367095
H      -3.649137   -2.018409    0.649333
H      -3.308247   -3.416872   -0.392312
H      -3.336702   -4.867532    2.894663
H      -4.501675   -3.632040    2.346418
H      -4.073943   -4.990133    1.273290
