17

C      -0.085338    1.388040   -0.158323
N      -0.035341   -0.042465    0.040377
C      -1.190971   -0.880530    0.031870
C      -1.436873   -1.739547   -1.208905
O      -0.804390   -1.445400   -2.405493
C      -0.632475   -2.290406   -0.050532
N       0.787194   -2.105564   -0.197786
C       1.145136   -0.752903   -0.064441
O       2.270883   -0.306946   -0.088803
H       0.941886    1.756195   -0.138439
H      -0.543023    1.641707   -1.122059
H      -0.656392    1.873135    0.641486
H      -2.009368   -0.597436    0.687044
H      -2.446269   -2.124685   -1.329377
H       0.089922   -1.811613   -2.352610
H      -0.975387   -3.118031    0.558299
H       1.444136   -2.796813    0.124633
