13

C       0.086318    1.470448   -0.177576
N      -0.010233    0.021876   -0.235489
C      -1.064659   -0.565598    0.097930
N      -1.151177   -1.955572    0.040048
N      -2.206897   -2.695128    0.364297
N      -3.271092   -2.146474    0.774145
C      -3.340830   -0.734286    0.889180
O      -4.310411   -0.162389    1.268305
O      -2.217786    0.018061    0.540098
H       0.917326    1.741780    0.481853
H       0.334296    1.846954   -1.175481
H      -0.823370    1.966838    0.173927
H      -0.341259   -2.467415   -0.277739
