16

C      -0.148057    1.554841    0.002945
C       0.018471    0.035402    0.006446
C       0.786595   -0.499819    1.241879
O       0.024734   -0.095661    2.382637
C       0.873191   -1.970541    1.176626
C       0.919819   -3.170409    1.135771
C       2.150569    0.058917    1.308196
C       3.257694    0.519166    1.388112
H       0.822478    2.058624   -0.020186
H      -0.714238    1.867853   -0.879168
H      -0.684948    1.888491    0.893493
H      -0.957681   -0.459645    0.014646
H       0.549839   -0.302887   -0.887917
H       0.490633   -0.403688    3.168160
H       0.966713   -4.231023    1.100229
H       4.238086    0.922608    1.455873
