21

C      -0.144625    1.454763   -0.064939
C       1.377773    1.624490   -0.007554
C       1.955647    1.014623    1.238551
C       1.383931    1.101625    2.649629
C       0.163882    0.331305    3.081637
C      -0.661092   -0.498756    2.443704
C      -0.696355   -0.943136    1.007185
C       0.052691   -0.100210   -0.017076
C       1.568977    0.103248    0.107216
H      -0.706733    1.904932    0.758584
H      -0.585725    1.786942   -1.007203
H       1.944244    2.334322   -0.599262
H       3.035599    1.156092    1.253717
H       2.184795    0.802355    3.342622
H       1.213242    2.163513    2.888452
H      -0.045678    0.485596    4.140711
H      -1.449843   -0.943151    3.050250
H      -0.330968   -1.980999    0.947262
H      -1.751647   -1.003264    0.702456
H      -0.164303   -0.506729   -1.010257
H       2.305208   -0.530092   -0.376185
