14

N       0.221251    1.361141   -0.227901
C       0.026128   -0.005962   -0.093885
C      -1.087352   -0.804429    0.069189
N      -0.679371   -2.092034    0.247320
N       0.610070   -2.158026    0.197495
N       1.064248   -0.879114    0.000945
C       2.483810   -0.618315   -0.020488
C       2.912236    0.034486   -1.264863
N       3.210322    0.594114   -2.230433
H       0.848704    1.621001   -0.981538
H      -0.649702    1.867179   -0.312458
H      -2.129112   -0.528607    0.063755
H       2.773480    0.019184    0.823397
H       2.979431   -1.586050    0.090984
