15

N       0.058464    1.008819   -0.734885
C      -0.048508    0.022156    0.211737
O       0.831588   -0.235084    1.009245
C      -1.321013   -0.748438    0.186055
C      -1.982129   -1.288001    1.414619
C      -1.473439   -2.263154    0.372413
C      -2.319059   -2.201253   -0.890526
O      -2.738047   -2.999189   -1.674980
N      -2.339903   -0.778806   -0.905987
H       0.856696    1.619043   -0.639991
H      -0.768436    1.414413   -1.142139
H      -1.378765   -1.259544    2.315725
H      -3.047236   -1.120475    1.534865
H      -0.709133   -2.996142    0.585196
H      -2.183321   -0.319367   -1.794339
