17

C      -0.040577    1.553829    0.116000
C      -0.015642    0.043679    0.166765
C      -1.224667   -0.651818   -0.361403
O      -2.190143   -0.078650   -0.804951
C       1.260139   -0.777939   -0.151359
O       2.421727   -0.056894    0.235041
C       2.002935   -0.079019    1.628460
C       0.692866   -0.767508    1.243350
O      -0.003439   -1.664048    2.023040
H       0.972230    1.960941    0.146064
H      -0.521103    1.879677   -0.809234
H      -0.616041    1.968839    0.949031
H      -1.177837   -1.761579   -0.340747
H       1.340706   -1.497923   -0.956835
H       2.665374   -0.729299    2.212831
H       1.960342    0.917214    2.078249
H       0.580591   -2.396837    2.251859
