19

O       0.029146    0.681939   -1.180869
C       0.049016    1.372782   -0.184113
N       1.116181    1.535080    0.642911
C       2.414859    0.922303    0.403010
C       3.498943    1.939649    0.072894
C       3.992845    2.914367    1.183377
C       5.438520    2.724199    0.649707
C       4.961739    1.434174   -0.070889
H      -0.829364    1.951840    0.165698
H       1.015445    2.162925    1.424663
H       2.711316    0.338443    1.285179
H       2.272033    0.225004   -0.426509
H       3.201305    2.504008   -0.817309
H       3.582021    3.927072    1.199361
H       3.874550    2.474299    2.180564
H       5.711916    3.507695   -0.062508
H       6.241570    2.628876    1.383835
H       5.135845    0.543050    0.542047
H       5.333979    1.238162   -1.078892
