23

C      -0.111897    1.465121   -0.099613
C      -0.039329   -0.065123   -0.140589
C       0.621508   -0.653688    1.104148
C      -0.142853   -0.647324    2.471691
C       0.149983   -2.144854    2.634086
C      -0.448866   -2.925398    1.525662
O      -1.706545   -2.592351    1.020951
C      -1.969966   -3.196569   -0.228966
C       0.821271   -2.173824    1.228744
H       0.888154    1.909024   -0.032959
H      -0.595191    1.867157   -0.995594
H      -0.684246    1.810252    0.768513
H      -1.046692   -0.479002   -0.244397
H       0.525766   -0.381507   -1.028082
H       1.592935   -0.166668    1.250145
H       0.339552   -0.026810    3.228889
H      -1.205028   -0.392354    2.425326
H       0.467556   -2.617527    3.556316
H      -0.293727   -4.004490    1.605383
H      -1.253180   -2.874082   -0.997522
H      -1.934491   -4.294690   -0.160074
H      -2.976362   -2.894667   -0.528723
H       1.716546   -2.699464    0.912476
