19

C       0.082104    1.516735   -0.196305
C       0.005986    0.005200   -0.089841
O       0.704640   -0.545739   -1.216044
C       0.752904   -1.901913   -1.306163
N       0.206622   -2.632404   -0.436867
C       0.228538   -4.085045   -0.485524
C       1.524921   -2.338518   -2.548391
N       2.001821   -1.316945   -3.303197
O       1.685858   -3.514195   -2.817824
H       1.120886    1.859597   -0.181310
H      -0.384937    1.869230   -1.120681
H      -0.441695    1.974504    0.648026
H       0.466723   -0.367678    0.830855
H      -1.026968   -0.357997   -0.100497
H      -0.240577   -4.472844   -1.395104
H       1.248478   -4.481501   -0.467339
H      -0.315745   -4.463046    0.384486
H       1.839493   -0.362878   -3.034066
H       2.520146   -1.537708   -4.136865
