23

C       0.053362    1.508741   -0.029534
C      -0.033242   -0.019733    0.071126
C      -1.449292   -0.554859    0.022536
C      -2.352423   -0.411287   -1.241568
C      -3.089514   -1.615774   -0.645559
C      -3.418398   -1.332069    0.887559
C      -2.513918   -2.540168    1.251939
C      -1.756320   -2.125418   -0.017062
C      -2.455921   -0.151705    1.129198
H       1.094371    1.845851   -0.011820
H      -0.397579    1.869997   -0.959963
H      -0.467663    1.994516    0.801856
H       0.548794   -0.468914   -0.744357
H       0.443421   -0.352300    1.003523
H      -2.882113    0.535060   -1.396528
H      -1.826688   -0.692995   -2.160238
H      -3.773573   -2.256841   -1.200988
H      -4.441509   -1.249310    1.254482
H      -2.009821   -2.531034    2.224610
H      -3.016936   -3.501401    1.107504
H      -1.044092   -2.758485   -0.547414
H      -2.031862   -0.161144    2.138961
H      -2.899684    0.832266    0.951128
