19

C       0.424211    1.341064   -0.248769
C       0.146857   -0.138350    0.096196
C       0.782538   -0.517822    1.360077
C       1.298417   -0.815642    2.404463
C      -1.351976   -0.453122    0.110322
C      -2.064074   -0.701345   -1.210319
C      -1.820858   -1.849190   -0.290785
C      -2.168861    0.192203    1.177914
O      -3.374883    0.131597    1.239095
H       1.499417    1.530335   -0.297637
H      -0.021329    1.590246   -1.216036
H       0.000443    2.007974    0.507431
H       0.593849   -0.752358   -0.697079
H       1.756553   -1.086687    3.323444
H      -3.075011   -0.316597   -1.279701
H      -1.467029   -0.620939   -2.112495
H      -1.047984   -2.568271   -0.539510
H      -2.666672   -2.244025    0.259767
H      -1.585760    0.735428    1.951321
