16

N      -0.098679   -1.080114   -0.299785
C      -0.066188    0.053123   -0.074157
C       0.006153    1.484728    0.206878
C       1.428740    2.040433    0.058063
C       2.068777    2.074546   -1.380021
C       2.175780    3.596222   -1.248131
N       0.791137    4.089028   -1.049409
C       1.561515    3.570587    0.107000
H      -0.656373    2.022041   -0.479286
H      -0.365794    1.659597    1.223592
H       2.102090    1.556377    0.768842
H       3.034078    1.566845   -1.412126
H       1.441156    1.720230   -2.201277
H       2.941486    4.248133   -1.649166
H       0.832515    5.106535   -1.004557
H       1.743314    4.190207    0.976723
