15

O       0.012363    0.007130   -0.036369
C      -0.014090    1.212385    0.005276
C      -1.254531    2.069553   -0.014942
C      -1.451496    3.165620    1.025407
C      -0.816713    3.500037   -0.288481
C       0.711473    3.499526   -0.329210
N       1.337409    3.129317    0.950567
C       1.204349    2.111801   -0.129553
H      -2.135886    1.620140   -0.455872
H      -2.480920    3.471155    1.176148
H      -0.827055    3.168788    1.908380
H      -1.339689    4.119210   -1.006838
H       1.218359    4.197818   -0.985184
H       2.303818    3.447840    0.965569
H       2.095834    1.697532   -0.586302
