20

C       0.119516    1.746702   -0.933269
C      -0.056392    0.355392   -0.337216
C       0.763096   -0.806515   -0.905620
C       2.191895   -0.682453   -0.570607
N       1.283352   -1.237870    0.457488
C       0.554497   -0.053801    1.044800
C       1.376637    0.911111    1.886292
C       2.468463    0.293482    2.737988
O       1.124184    2.095142    1.909378
H       1.169312    2.045883   -0.985887
H      -0.289194    1.768797   -1.949888
H      -0.400375    2.496276   -0.332823
H      -1.119379    0.098702   -0.338006
H       0.399750   -1.536902   -1.621462
H       2.870981   -1.429224   -0.969618
H       2.639422    0.298172   -0.422508
H      -0.222553   -0.441323    1.715433
H       3.238887   -0.158162    2.105274
H       2.911119    1.058630    3.376733
H       2.058449   -0.518756    3.348315
