24

C      -0.092162    1.426230    0.309062
C       0.163515   -0.076319    0.155657
C       0.710028   -0.493966   -1.233502
C       2.113666    0.064696   -1.495918
C       0.630538   -2.003724   -1.375369
C      -0.713095   -2.635639   -1.656894
C      -0.885452   -2.971788   -3.150214
N       1.719788   -2.661062   -1.256577
O       1.520120   -4.050157   -1.389901
H       0.828633    2.010256    0.221995
H      -0.789931    1.788482   -0.454654
H      -0.528864    1.646988    1.288134
H       0.874029   -0.416820    0.919280
H      -0.772242   -0.613720    0.350594
H       0.024555   -0.078212   -1.988443
H       2.106820    1.157869   -1.475555
H       2.823337   -0.292307   -0.745041
H       2.484080   -0.255304   -2.473241
H      -0.808544   -3.552404   -1.068464
H      -1.508295   -1.952955   -1.340851
H      -0.798357   -2.075084   -3.772559
H      -0.122574   -3.685293   -3.469185
H      -1.870016   -3.412624   -3.333856
H       2.411986   -4.390610   -1.266777
