21

C       0.056861    1.070423    0.775920
C       0.003184   -0.343164    0.193679
C       0.568628   -0.424141   -1.224819
O       1.957033   -0.126686   -1.185558
C       2.405991    0.836844   -2.117359
C       0.382376   -1.846146   -1.819418
O      -0.981995   -2.259094   -1.782026
C       0.927145   -1.955482   -3.174749
C       1.297494   -2.042093   -4.315858
H       1.084135    1.445496    0.787909
H      -0.551928    1.767233    0.188156
H      -0.321029    1.086481    1.802546
H       0.583726   -1.027808    0.825225
H      -1.023704   -0.719553    0.176753
H       0.042423    0.293233   -1.874442
H       2.240251    0.516816   -3.153451
H       1.915349    1.809356   -1.962540
H       3.480073    0.958106   -1.953508
H       0.918772   -2.539684   -1.160731
H      -1.424959   -1.863870   -2.540977
H       1.644027   -2.133056   -5.315837
