16

O       0.077432    0.001761    0.001217
C       0.014942    1.210580    0.009632
C      -1.238560    2.120156    0.032435
C      -0.686362    3.528127    0.032192
C       0.652162    3.434310    0.012191
C       1.865350    4.233137   -0.001692
C       2.930532    3.414139   -0.022150
C       2.516911    1.956687   -0.023728
N       1.072897    2.088445   -0.000995
H      -1.865789    1.890858   -0.837655
H      -1.840528    1.881300    0.917667
H      -1.272661    4.433410    0.045442
H       1.883272    5.313690    0.003794
H       3.969036    3.718016   -0.036197
H       2.866968    1.417264   -0.915020
H       2.893876    1.407779    0.850634
