19

C      -0.075833    1.529746    0.006097
C      -0.057031    0.035510   -0.075001
C       0.731201   -0.816220   -1.073974
C      -0.196215   -2.030482   -0.698554
C      -0.699690   -2.957008   -1.776748
N       0.512204   -2.716898    0.406344
C       0.446839   -1.906306    1.382845
N      -0.343678   -0.722910    1.219374
C      -1.131794   -0.986436    0.002246
H       0.899449    1.914561    0.324820
H      -0.304440    1.967520   -0.971606
H      -0.825148    1.865873    0.726690
H       0.524710   -0.464676   -2.088837
H       1.807178   -0.958413   -0.935881
H       0.129635   -3.515766   -2.220300
H      -1.407365   -3.681631   -1.360907
H      -1.205157   -2.399025   -2.571402
H       0.949831   -2.057834    2.332782
H      -2.214834   -0.914380    0.028173
