19

C      -0.048144    1.327185   -0.168673
C       0.017669   -0.113710    0.237514
C      -1.046280   -0.922905    0.343821
C      -2.183175   -0.976291   -0.672664
C      -1.593684   -2.367765   -1.032900
C      -0.052041   -2.594157   -0.925360
O       1.024420   -1.720569   -1.157759
C       1.292352   -0.890599    0.007788
C      -0.855254   -2.440611    0.306240
H       0.532529    1.958187    0.516349
H       0.380985    1.471889   -1.169283
H      -1.075609    1.700190   -0.173422
H      -3.184922   -1.113206   -0.249640
H      -2.212203   -0.195772   -1.439578
H      -2.177933   -3.156504   -1.498510
H       0.207825   -3.604169   -1.237458
H       2.137268   -0.257171   -0.269340
H       1.582851   -1.526283    0.852484
H      -0.952292   -3.136721    1.130732
