20

C      -0.404720    1.426817   -0.107854
C       0.100641   -0.016042   -0.101607
C       0.714453   -0.496307   -1.394755
N       0.777419    0.354167   -2.348553
O       1.404869   -0.177142   -3.502071
C       1.191839   -1.918180   -1.521074
O       0.696473   -2.603201   -2.635906
C       2.600350   -2.254793   -1.060358
C       1.397993   -2.794660   -0.322183
H       0.403716    2.128729   -0.326496
H      -1.175679    1.570406   -0.868836
H      -0.829116    1.679258    0.868307
H       0.843865   -0.142377    0.698470
H      -0.714232   -0.705853    0.155595
H       1.308394    0.541444   -4.134897
H       0.933838   -2.064372   -3.403424
H       3.151788   -2.936116   -1.697948
H       3.194590   -1.480298   -0.587434
H       1.179086   -2.410787    0.666798
H       1.145823   -3.837997   -0.470477
