19

C      -0.147857    1.587541   -0.010676
C       0.040734    0.076541   -0.014743
O      -1.204874   -0.589098    0.163883
C       0.716756   -0.580026   -1.214286
C       2.227273   -0.470025   -1.092423
O       2.798324    0.554417   -0.302085
C       2.376454    0.306823    1.048495
C       1.145993   -0.583050    0.902413
C       1.525008   -1.503055   -0.292639
H       0.788829    2.103287   -0.231710
H      -0.886838    1.864588   -0.769112
H      -0.516325    1.938845    0.962426
H      -1.624493   -0.214747    0.946423
H       0.220890   -0.809297   -2.151292
H       2.825166   -0.720726   -1.960228
H       3.176172   -0.200548    1.608589
H       2.171608    1.270333    1.525540
H       0.771967   -1.032273    1.821803
H       1.682139   -2.572667   -0.300886
