16

C      -0.117314    1.396586    0.362514
C      -0.013289   -0.038202   -0.096105
O       1.011907   -0.562491   -0.466709
C      -1.289887   -0.835591   -0.074587
C      -2.072866   -1.457352   -1.266392
C      -2.905832   -1.595459    0.028424
C      -1.648465   -2.081816    0.784687
O      -2.551167   -0.197449    0.380680
H       0.859151    1.878342    0.305819
H      -0.847253    1.931439   -0.254905
H      -0.504831    1.431344    1.386623
H      -2.452877   -0.736353   -1.990642
H      -1.663908   -2.359855   -1.723933
H      -3.947422   -1.888287    0.154787
H      -1.203753   -3.036956    0.500014
H      -1.655870   -1.909080    1.861206
