13

C      -0.032704    1.519178   -0.007095
C      -0.008669    0.018557   -0.019596
N      -0.043790   -0.634820   -1.178421
C      -0.020263   -1.973542   -1.139914
C       0.038586   -2.670755    0.056775
N       0.074636   -2.031338    1.234873
C       0.050597   -0.726944    1.170842
F       0.085600   -0.062947    2.324368
H       0.859955    1.922621    0.482674
H      -0.079435    1.888851   -1.031875
H      -0.896411    1.893904    0.552427
H      -0.049434   -2.494845   -2.091970
H       0.057435   -3.756097    0.083672
