12

C       0.081229    1.412402   -0.051233
N       0.082221   -0.028763   -0.009803
N       0.184469   -0.781602   -1.158562
C       0.153050   -2.009228   -0.744909
N       0.035444   -2.089905    0.617369
C      -0.014321   -0.790337    1.138520
O      -0.115587   -0.436913    2.295146
H       1.011830    1.788838   -0.486000
H      -0.763198    1.783222   -0.639621
H      -0.009140    1.758787    0.979632
H       0.212349   -2.868302   -1.394080
H      -0.011641   -2.914348    1.189765
