14

O       0.232221    0.976943   -0.817828
C      -0.086919    0.207854    0.312031
C      -1.412448   -0.463842    0.145451
N      -2.174037   -0.380851   -0.893431
C      -3.287610   -1.174573   -0.581234
C      -3.101557   -1.690400    0.663928
O      -1.903003   -1.241449    1.139034
C      -4.379057   -1.360874   -1.458770
C      -5.311080   -1.523170   -2.201877
H      -0.488109    0.861937   -1.452502
H       0.682476   -0.559583    0.491899
H      -0.115321    0.839013    1.213702
H      -3.673258   -2.337752    1.304993
H      -6.131750   -1.663499   -2.861171
