17

O      -0.207361    1.443107   -0.048133
C      -0.084769    0.070836   -0.031088
C      -0.274229   -0.762564    1.218594
C      -1.179280   -1.021732    0.049764
O      -2.543472   -1.018484    0.187137
C      -0.457714   -1.792267   -1.026411
C      -0.565016   -3.196902   -1.413602
O      -1.199954   -2.155755   -2.186241
C       0.667459   -0.742943   -1.103131
H       0.453956    1.822037    0.541506
H       0.464348   -1.487318    1.559119
H      -0.784540   -0.222771    2.012052
H      -2.908485   -1.051708   -0.707164
H       0.267460   -3.691308   -1.911542
H      -1.245878   -3.855128   -0.876068
H       0.662378   -0.245993   -2.076280
H       1.682043   -1.076231   -0.859359
