21

C      -0.118500    1.526376   -0.167973
C      -0.069335    0.004739   -0.005835
C       0.755110   -0.438119    1.207146
C       0.807171   -1.956679    1.371566
C       1.589333   -2.416796    2.594648
O       2.010863   -1.654577    3.426420
C       1.806696   -3.941482    2.683352
C       2.393138   -4.400662    3.929828
C       2.874752   -4.786613    4.959569
H       0.886657    1.942720   -0.296572
H      -0.713574    1.816286   -1.039467
H      -0.561908    2.003156    0.713030
H      -1.091376   -0.387345    0.085309
H       0.346759   -0.447545   -0.916283
H       1.777694   -0.050809    1.124438
H       0.345920    0.004783    2.121953
H      -0.207963   -2.373125    1.456335
H       1.235763   -2.438849    0.481415
H       0.844882   -4.438280    2.497619
H       2.442359   -4.224263    1.831718
H       3.301301   -5.119186    5.873168
