19

C      -0.170403    1.606575   -0.036164
C      -0.121244    0.088940   -0.177526
N      -1.428913   -0.494554    0.137615
C      -1.452571   -1.954718    0.113222
C      -2.841010   -2.478000    0.527416
C      -3.189060   -2.210073    1.972696
O      -2.511973   -1.567353    2.736814
C      -1.142628   -2.449983   -1.239876
N      -0.906526   -2.866928   -2.291091
H       0.793888    2.048672   -0.302089
H      -0.940199    2.029301   -0.687730
H      -0.398358    1.900754    0.994714
H       0.131121   -0.180165   -1.209414
H       0.681888   -0.321343    0.461649
H      -1.684869   -0.224166    1.083129
H      -0.702068   -2.403500    0.790866
H      -3.615988   -2.018219   -0.100136
H      -2.917119   -3.559566    0.358556
H      -4.150224   -2.660693    2.303286
