17

C       0.158020    1.287423    0.164023
O       0.052435   -0.101803   -0.108229
C      -1.244448   -0.615960   -0.010587
C      -1.361563   -1.977797   -0.653272
O      -0.757843   -3.025633    0.113967
C      -2.177558   -2.862170    0.197017
C      -2.593201   -2.145014    1.463049
C      -1.738469   -0.870011    1.442364
O      -1.477766   -0.178424    2.389518
H       1.199068    1.561354   -0.020705
H      -0.488039    1.871524   -0.510642
H      -0.104561    1.518563    1.200339
H      -1.976720    0.063887   -0.490509
H      -1.295452   -2.083799   -1.732053
H      -2.772857   -3.671682   -0.215612
H      -3.657188   -1.874898    1.446025
H      -2.408704   -2.718843    2.374981
