15

O      -0.294385    0.414275   -0.763853
C       0.030662    1.136692    0.144189
C       1.313175    1.893443    0.173661
C       1.765392    2.918715    1.209253
C       2.251675    3.781896    0.018319
N       1.723777    2.796218   -1.003008
C       2.408861    1.515037   -0.770543
C       3.780048    1.436906   -0.332911
N       4.881372    1.383126    0.016017
H      -0.621039    1.292571    1.030917
H       0.925093    3.367657    1.742502
H       2.510494    2.580592    1.932473
H       1.718530    4.725108   -0.097977
H       3.327008    3.954873   -0.063473
H       2.118758    0.770938   -1.506684
