19

O       0.129820    1.358602    0.253328
C       0.017768   -0.019195   -0.051055
C      -1.404639   -0.504257   -0.049053
C      -1.927081   -1.660457   -0.864727
C      -2.560968   -0.310132   -1.044207
C      -3.545743   -0.034774    0.106256
C      -2.375385   -0.235785    1.084349
C      -2.307964   -0.596625    2.501248
O      -2.068928    0.757623    2.063994
H      -0.349690    1.494988    1.080885
H       0.457380   -0.162024   -1.044877
H       0.613191   -0.632367    0.648830
H      -1.271032   -1.980810   -1.668828
H      -2.475648   -2.472661   -0.392283
H      -2.546665    0.213071   -1.991645
H      -3.892513    1.000601    0.142123
H      -4.403090   -0.710135    0.192141
H      -3.223928   -0.731431    3.074145
H      -1.436246   -1.121228    2.889519
