19

O       0.162962    1.407350   -0.194436
C       0.072086   -0.011425   -0.021022
C       0.819635   -0.471156    1.201238
C       0.166042   -1.175730    2.124119
C      -1.281700   -1.501128    1.912417
C      -1.714857   -1.932776    0.467502
C      -3.143985   -1.435659    0.808459
C      -2.187078   -0.347560    1.359066
C      -1.383809   -0.471140    0.018756
H      -0.151671    1.809828    0.622897
H       0.546395   -0.416063   -0.925376
H       1.864061   -0.189953    1.295546
H       0.654190   -1.524017    3.029984
H      -1.720164   -2.088233    2.723324
H      -1.432310   -2.857469   -0.039449
H      -3.776369   -1.150214   -0.036377
H      -3.700102   -2.016717    1.549714
H      -2.455573    0.569837    1.887971
H      -1.918136   -0.121185   -0.869947
