22

C      -0.111047    1.523516   -0.035446
O       0.010186    0.122624   -0.066115
C      -1.232041   -0.539673    0.061156
C      -1.038713   -2.050786    0.034021
C      -0.195844   -2.586697   -1.149736
C       0.388442   -3.907063   -0.608479
C       0.440979   -3.692287    0.898041
C       1.006702   -2.414789    1.397028
N      -0.454546   -2.582833    1.286005
H       0.891578    1.943227   -0.148528
H      -0.746672    1.895563   -0.855152
H      -0.539675    1.876273    0.915748
H      -1.722854   -0.254693    1.005446
H      -1.902838   -0.243330   -0.764013
H      -2.046748   -2.484002   -0.017987
H      -0.800099   -2.731923   -2.048957
H       0.592168   -1.874190   -1.401376
H      -0.278935   -4.747940   -0.829640
H       1.365477   -4.147219   -1.039605
H       0.430316   -4.566528    1.543338
H       1.363835   -2.350955    2.421048
H       1.511265   -1.750385    0.704307
