22

C      -0.280722    1.556777   -0.022282
C       0.046955    0.069533   -0.020700
C       1.193613   -0.468455   -0.943547
C       1.818493   -1.222653    0.267847
C       2.919231   -0.497177    1.073936
N       2.672605    0.957849    0.952388
C       1.896165    0.164077    1.935860
C       0.744514   -0.591087    1.217555
C      -0.090620   -1.438342    2.153634
H       0.618835    2.155290    0.132752
H      -0.731220    1.852457   -0.976905
H      -1.000978    1.801977    0.767578
H      -0.872344   -0.494958   -0.219833
H       0.853899   -1.121574   -1.751044
H       1.835562    0.310568   -1.357271
H       1.926135   -2.305974    0.202159
H       3.911188   -0.861491    1.314458
H       3.409628    1.431543    1.473741
H       1.926530    0.426277    2.988192
H      -0.764588   -0.816786    2.757119
H      -0.705987   -2.153208    1.596951
H       0.540229   -2.007897    2.846652
