23

C      -0.193966    1.490649   -0.193704
O      -0.245715    0.269167    0.514133
C      -1.287446   -0.586835    0.082528
C      -1.098002   -1.347066   -1.258147
C      -1.496934   -2.661843   -0.532785
C      -1.354709   -1.942475    0.843987
C      -0.097750   -2.291290    1.655906
C      -0.137492   -3.715228    2.199450
O       1.089130   -2.166292    0.879661
H       0.625254    2.077968    0.227412
H      -0.007802    1.336018   -1.266096
H      -1.132520    2.054092   -0.082124
H      -2.241112   -0.039745    0.118851
H      -1.710419   -1.029652   -2.105462
H      -0.046548   -1.356390   -1.555013
H      -2.520383   -2.980012   -0.743543
H      -0.825486   -3.506335   -0.694633
H      -2.222697   -2.030947    1.505261
H      -0.055744   -1.594222    2.508019
H      -0.198214   -4.443764    1.385093
H       0.773668   -3.920608    2.767512
H      -0.999832   -3.858585    2.857702
H       1.156395   -1.226339    0.666464
