20

C      -0.058381    1.479531   -0.133049
C       1.492319    1.488166   -0.058264
C       1.426496    0.073533    0.583964
C      -0.025572   -0.063491    0.039829
C       2.471604   -0.961415    0.213203
C       2.180523   -2.408238    0.703831
N       2.156400   -3.238322   -0.513901
C       2.353161   -2.437098   -1.474180
O       2.539838   -1.117430   -1.236785
H      -0.509055    1.974619    0.731935
H      -0.522246    1.874643   -1.039366
H       1.943626    1.441621   -1.052707
H       1.975471    2.283837    0.514037
H       1.416512    0.152848    1.677841
H      -0.774079   -0.522568    0.689565
H      -0.036000   -0.573322   -0.927013
H       3.462296   -0.615871    0.530998
H       2.945602   -2.778703    1.392775
H       1.214773   -2.481376    1.217615
H       2.388126   -2.710892   -2.523266
