15

C       0.013161    1.525408    0.042980
C      -0.072825   -0.006858   -0.022632
O       0.425725   -0.591210    1.190981
C      -1.543539   -0.484307   -0.069348
O      -2.244064   -0.086573    1.086857
C       0.657512   -0.525704   -1.185074
C       1.256411   -0.950321   -2.137186
H       1.048434    1.845982    0.196147
H      -0.342748    1.972468   -0.889363
H      -0.605472    1.882286    0.868753
H       1.341305   -0.315637    1.303886
H      -2.047716   -0.037926   -0.930494
H      -1.543604   -1.576340   -0.194395
H      -1.720077   -0.402892    1.833166
H       1.784936   -1.328521   -2.977479
