22

C      -0.055396    1.538361   -0.018365
C       0.056177    0.024758    0.028209
C      -1.164586   -0.675420   -0.551403
C       1.360779   -0.699850   -0.224466
C       2.555485    0.006583    0.376196
N       3.155071   -0.761274    1.472447
C       1.920466   -0.016491    1.748197
C       1.927782    0.979571    2.871973
C       0.705056   -0.726541    1.175384
H       0.840802    2.036114    0.354800
H      -0.219152    1.874196   -1.049171
H      -0.908444    1.883417    0.577843
H      -1.316453   -0.391413   -1.598813
H      -1.063321   -1.764551   -0.509897
H      -2.070419   -0.401188    0.000987
H       1.419720   -1.520136   -0.933435
H       3.160727    0.779805   -0.083717
H       2.985313   -1.759591    1.363390
H       2.903006    1.467715    2.943042
H       1.156862    1.743987    2.735823
H       1.735527    0.480126    3.829077
H       0.198671   -1.564338    1.646249
