17

O      -0.138000    1.049608    1.350932
C       0.023804    0.036984    0.411452
C      -0.627714   -1.286284    0.693022
C      -1.172431   -0.399482   -0.416579
C      -2.441622    0.336569   -0.258335
C      -2.835112    1.589694   -0.673596
N      -4.129591    1.858146   -0.291875
C      -4.525503    0.784931    0.351650
N      -3.546791   -0.162110    0.403289
H      -0.788958    1.675365    1.006543
H       0.994361    0.037635   -0.081066
H      -0.121427   -2.202071    0.409749
H      -1.185930   -1.336219    1.621631
H      -0.944140   -0.720166   -1.429548
H      -2.258979    2.302130   -1.246360
H      -5.496225    0.635910    0.800733
H      -3.604659   -1.070047    0.833822
