23

C      -0.375168    1.286790   -0.355590
O      -0.334574   -0.112762   -0.525623
C       0.974226   -0.591968   -0.846733
C       0.919975   -2.095736   -0.943971
C      -0.079559   -2.715049   -1.899726
O      -0.828163   -1.862549   -2.713609
C       1.395887   -2.874314   -2.173341
C       1.995565   -2.148091   -3.361482
C       2.009243   -4.234279   -1.896085
H       0.277503    1.610059    0.469698
H      -0.064691    1.819650   -1.267829
H      -1.406271    1.559424   -0.118488
H       1.310198   -0.128815   -1.784258
H       1.679723   -0.279571   -0.061157
H       1.038755   -2.604850    0.008339
H      -0.622731   -3.596077   -1.555647
H      -1.153751   -1.159468   -2.134406
H       1.377480   -1.304477   -3.671649
H       3.009529   -1.790413   -3.147528
H       2.061759   -2.830588   -4.216391
H       1.924819   -4.886606   -2.773041
H       3.073631   -4.145022   -1.647784
H       1.515222   -4.736283   -1.057981
