20

C       0.043838    1.547239   -0.136739
C      -0.022997    0.022716    0.018832
C       0.680029   -0.420196    1.329575
C       2.112419   -0.133982    1.319947
N       3.244138    0.098794    1.290344
C      -1.480162   -0.525685   -0.001948
C      -2.318110    0.010364   -1.172749
C      -1.426593   -2.041574   -0.086803
O      -1.535493   -2.794118    0.847286
H       1.076764    1.893273   -0.039024
H      -0.321544    1.870639   -1.113571
H      -0.554556    2.047161    0.633835
H       0.521931   -0.431040   -0.820650
H       0.226691    0.098692    2.183108
H       0.539722   -1.490458    1.509156
H      -1.961565   -0.273523    0.950799
H      -3.299481   -0.473743   -1.198597
H      -2.483577    1.085724   -1.084577
H      -1.826566   -0.178920   -2.133714
H      -1.249976   -2.432303   -1.117564
