18

N      -0.092327    1.295868    0.569814
C      -0.028370    0.120084    0.080167
C      -1.289319   -0.701772   -0.056386
C      -1.704605   -1.010281   -1.507192
C      -0.508855   -1.443563   -2.365689
N       0.431128   -2.287873   -1.629037
C       1.422116   -1.775533   -0.828400
O       2.468800   -2.350186   -0.603014
N       1.173812   -0.501503   -0.293124
H       0.829882    1.736308    0.617589
H      -1.137022   -1.648539    0.473061
H      -2.079091   -0.151192    0.455049
H      -2.464770   -1.798266   -1.486314
H      -2.165253   -0.128801   -1.965477
H      -0.846508   -2.005519   -3.239860
H       0.015739   -0.555466   -2.739953
H       0.709646   -3.161514   -2.047599
H       2.016252   -0.105766    0.100815
