18

O      -0.006748   -0.031425   -0.089892
C      -0.007986    1.182192   -0.011411
C      -1.314407    1.967453    0.126489
O      -1.175174    3.327453    0.490076
C      -0.173184    3.970337   -0.275126
C       1.177469    3.369216    0.035805
C       2.434375    4.084072   -0.364818
C       2.054677    3.983962    1.099617
N       1.126488    1.935999   -0.094478
H      -1.850924    1.864820   -0.831618
H      -1.916373    1.482136    0.897319
H      -0.389299    3.876386   -1.352838
H      -0.194536    5.029393   -0.007503
H       3.266014    3.482344   -0.718051
H       2.343650    5.043451   -0.863885
H       1.702787    4.876080    1.606465
H       2.629914    3.309534    1.724324
H       1.985510    1.409875   -0.176809
