16

C      -0.193306    1.611524    0.543459
C      -0.075196    0.136327    0.101439
C       0.828030   -0.607314    0.974586
C       1.590787   -1.192764    1.695158
C      -1.468524   -0.510051    0.031897
C      -1.753583   -1.888773    0.475447
O      -2.122841   -0.762953    1.272656
C      -2.323822    0.056441   -1.001642
N      -2.971977    0.517022   -1.840342
H       0.793714    2.077820    0.560940
H      -0.830950    2.166832   -0.149754
H      -0.624839    1.669431    1.545451
H       0.330081    0.110220   -0.919248
H       2.267436   -1.708484    2.331325
H      -2.580459   -2.430592    0.021592
H      -0.928354   -2.480837    0.861417
