17

O       0.047897    1.343742   -0.240813
C       0.040363   -0.031421   -0.060081
C      -0.323265   -0.859795   -1.255754
C      -1.253387   -0.843397   -0.047937
O      -1.082075   -1.935360    0.824779
C      -0.059271   -1.587260    1.768749
C       0.924757   -0.667635    1.019177
C      -2.540547   -0.223364   -0.075707
C      -3.610775    0.326774   -0.080427
H      -0.492359    1.747348    0.448966
H      -0.648153   -0.307554   -2.130130
H       0.201995   -1.791016   -1.437865
H      -0.504913   -1.060231    2.625530
H       0.383139   -2.519357    2.128027
H       1.756060   -1.229650    0.582165
H       1.344415    0.107505    1.664968
H      -4.565653    0.790853   -0.100058
