19

C      -0.013318    1.639623   -0.064882
C      -0.038292    0.108271   -0.005203
C       0.817860   -0.431021    1.164847
N      -1.402364   -0.440911    0.064892
C      -2.251079   -0.192587    1.130761
N      -3.556694   -0.607959    0.894819
O      -1.917483    0.350938    2.167177
C       0.581435   -0.505033   -1.263386
O       1.321610    0.067128   -2.016984
H       1.009977    1.996407   -0.200473
H      -0.606983    2.002817   -0.909330
H      -0.424730    2.048230    0.859478
H       0.394663   -0.094100    2.110420
H       0.836370   -1.525550    1.161012
H       1.842737   -0.062407    1.069790
H      -1.871225   -0.521787   -0.826652
H      -3.691896   -1.419567    0.310536
H      -4.115243   -0.610369    1.735032
H       0.309412   -1.576907   -1.412795
