16

O       0.132216    1.177706   -0.517511
C       0.064833   -0.110357    0.052327
C       0.066106   -0.197344    1.618865
C      -1.315505   -0.880454    1.528834
O      -2.050447   -1.398240    2.323417
C      -1.360118   -0.676440    0.045840
C      -2.544056   -0.123817   -0.723663
C      -2.078502   -1.517396   -0.983074
H       1.048506    1.471042   -0.495111
H       0.797951   -0.786597   -0.407442
H       0.857057   -0.782675    2.094747
H       0.010853    0.791166    2.085231
H      -3.460709    0.022835   -0.162982
H      -2.307731    0.648315   -1.446629
H      -1.545142   -1.721817   -1.905669
H      -2.669787   -2.341434   -0.597497
