18

C      -0.222418    1.439499    0.198102
C       0.034083   -0.040172   -0.045832
C       0.799778   -0.466601   -1.347594
N       1.811295   -1.067393   -0.473461
C       1.242790   -0.646873    0.709479
O       1.603565   -0.705712    1.852960
C       0.069148   -1.405628   -2.278108
C       0.568548   -2.740097   -2.633727
O      -0.494778   -2.577502   -1.694646
H       0.680036    2.035289    0.024982
H      -1.013677    1.820520   -0.455272
H      -0.531696    1.599314    1.235090
H      -0.869654   -0.637293    0.100508
H       1.172964    0.392266   -1.920624
H       2.743928   -1.402610   -0.667375
H      -0.587168   -0.899375   -2.989042
H       0.291008   -3.185576   -3.587891
H       1.506436   -3.090829   -2.207105
