18

C      -0.569210    0.377623   -0.850615
O      -1.559842    0.156719    0.131859
C      -1.107780   -0.613169    1.217755
C      -0.840246   -2.070474    0.876576
N       0.209437   -2.652334    1.280559
O      -1.870623   -2.580528    0.148719
C      -1.795563   -3.930444   -0.269269
C      -3.019623   -4.213843   -1.127461
O      -3.257978   -5.298741   -1.583023
H      -1.015692    1.017655   -1.614766
H       0.312944    0.882608   -0.429094
H      -0.236780   -0.558355   -1.323056
H      -0.187900   -0.210942    1.661761
H      -1.905491   -0.575283    1.968061
H       0.246994   -3.641543    1.037029
H      -0.890856   -4.118303   -0.864938
H      -1.786307   -4.621911    0.584585
H      -3.667907   -3.328089   -1.296957
