17

C      -0.082468    1.462294   -0.043005
C      -0.020580    0.009608   -0.037025
C       0.039635   -1.196236   -0.031707
C       0.115630   -2.604549   -0.024877
C       1.211805   -3.460356   -0.047507
C       0.658837   -4.749022   -0.028081
N      -0.673807   -4.716488    0.004867
N      -0.991674   -3.412465    0.001925
C      -2.379058   -3.008981    0.087547
H       0.880914    1.895569    0.247168
H      -0.334864    1.849631   -1.036701
H      -0.837129    1.831461    0.660377
H       2.248335   -3.169130   -0.081878
H       1.169090   -5.700814   -0.042357
H      -2.737765   -3.052725    1.121282
H      -2.474083   -1.986862   -0.280643
H      -2.978267   -3.684081   -0.524876
