14

C       0.020696    1.431431   -0.035147
N       0.023139   -0.016288    0.007587
N       0.037288   -0.742697   -1.151385
C       0.056518   -2.003832   -0.768169
C       0.057965   -2.130149    0.647739
C       0.072229   -3.261937    1.485075
N       0.083440   -4.156718    2.223686
C       0.037713   -0.808304    1.092584
O       0.031723   -0.278064    2.321801
H       0.982205    1.804020   -0.398994
H      -0.771029    1.769909   -0.706079
H      -0.159752    1.810206    0.970889
H       0.066646   -2.798774   -1.498331
H       0.026365   -0.993257    2.970819
