22

C       0.063248    1.559266    0.090058
C      -0.051942    0.032366    0.046583
C      -1.477768   -0.522971   -0.097935
C      -2.180127   -0.008812   -1.360067
C      -1.465884   -2.058227   -0.031788
C      -2.881359   -2.611082    0.161519
N      -3.638289   -1.905613    1.189445
C      -3.241462   -0.752901    1.524845
O      -2.208826   -0.014690    1.054550
H       1.095470    1.854351    0.300860
H      -0.220531    2.022199   -0.859665
H      -0.574784    1.973988    0.874576
H       0.547651   -0.367428   -0.780711
H       0.369994   -0.386483    0.967524
H      -1.615790   -0.296560   -2.252973
H      -3.189052   -0.419640   -1.446258
H      -2.264937    1.079605   -1.339189
H      -1.002517   -2.464846   -0.937015
H      -0.841848   -2.362331    0.816546
H      -3.450541   -2.576643   -0.777076
H      -2.836378   -3.669767    0.440488
H      -3.751650   -0.201637    2.313828
