19

C       0.162826    1.455257    0.031650
C       0.023089   -0.067362   -0.023084
C       1.015908   -0.836062   -0.984223
C       1.537032   -1.690685    0.200674
C       2.717711   -1.063917    0.956256
O       1.826927   -0.221779    1.731420
C       0.663811   -0.860036    1.177855
C      -1.355785   -0.479675   -0.230604
C      -2.493174   -0.841603   -0.383117
H       1.184987    1.724456    0.306937
H      -0.076899    1.895662   -0.940815
H      -0.516835    1.882479    0.774777
H       0.508334   -1.401146   -1.766196
H       1.771192   -0.193215   -1.445467
H       1.497652   -2.773956    0.105376
H       3.267044   -1.755270    1.607759
H       3.433758   -0.481306    0.363264
H      -0.013057   -1.246813    1.943107
H      -3.499763   -1.148781   -0.524145
