16

O       0.064714    0.218722    0.864985
C       0.032230    1.205161    0.178627
C      -1.325415    1.845074   -0.141144
C      -1.483852    2.930971   -1.220934
C      -0.643535    4.147540   -0.937735
C       0.685245    4.065731   -0.911482
C       1.371576    2.764324   -1.217773
O       1.213871    1.736537   -0.214416
H      -1.987277    1.000177   -0.352564
H      -1.662277    2.250010    0.821092
H      -1.226546    2.514265   -2.203903
H      -2.543120    3.198217   -1.273750
H      -1.145486    5.083671   -0.709685
H       1.302280    4.924918   -0.668936
H       1.035726    2.363377   -2.182608
H       2.453354    2.892824   -1.276076
