21

C      -0.107894    1.613194    0.154160
C       0.038609    0.087944    0.092375
C       0.783775   -0.456795    1.316954
C      -1.346007   -0.570972   -0.018798
O      -2.097637   -0.244534    1.138773
O       0.661644   -0.331963   -1.133087
C       1.975566    0.092034   -1.384898
C       2.390923   -0.484188   -2.728848
O       3.468388   -0.301164   -3.229259
H       0.850398    2.111871    0.325996
H      -0.535024    1.990725   -0.780215
H      -0.779678    1.879795    0.973008
H       0.167011   -0.318116    2.207602
H       0.980199   -1.526729    1.195748
H       1.735918    0.056108    1.480913
H      -1.830421   -0.205425   -0.935788
H      -1.205209   -1.656785   -0.120537
H      -2.961773   -0.657931    1.063953
H       2.071180    1.187410   -1.439045
H       2.693228   -0.258102   -0.627081
H       1.598821   -1.097433   -3.212819
