18

O       0.003711    0.056058    0.133439
C      -0.015002    1.243299   -0.008312
C      -1.192226    2.236731   -0.012969
C      -0.811664    3.041008    1.263018
C       0.766605    3.063215    1.240576
C       1.133220    2.269434   -0.046026
C       0.686889    3.132298   -1.220077
N      -0.063020    2.386598   -2.254167
C      -0.803866    3.111349   -1.198871
H      -2.185692    1.791933   -0.022303
H      -1.235832    4.048484    1.243815
H      -1.185822    2.542277    2.160622
H       1.161549    4.082216    1.209717
H       1.180005    2.575577    2.126990
H       2.138131    1.852737   -0.083759
H       1.245769    4.021849   -1.491024
H      -0.082860    2.924687   -3.116478
H      -1.394997    3.984740   -1.453453
