17

C       0.089992    1.450346   -0.154487
C      -0.206382   -0.018803    0.021281
O      -0.800862   -0.517323    0.936733
O       0.309961   -0.723192   -1.027829
C       0.153104   -2.136326   -0.986030
C      -1.214063   -2.684331   -1.317172
C      -0.112371   -2.748588   -2.341352
C       1.003496   -2.812135   -0.046665
C       1.729806   -3.387371    0.718919
H       1.170972    1.614824   -0.117304
H      -0.257495    1.794812   -1.132121
H      -0.396328    2.014804    0.640025
H      -1.519184   -3.592463   -0.812242
H      -1.998911   -1.951325   -1.458715
H      -0.148438   -2.052898   -3.171626
H       0.353795   -3.702772   -2.553512
H       2.360169   -3.889960    1.410001
