13

N       0.001241    1.373321    0.149262
C      -0.009310   -0.009252    0.049092
C      -1.102934   -0.871044    0.026082
N      -0.563140   -2.130203   -0.007564
C       0.778118   -1.975350    0.001313
N       1.155462   -0.715912    0.031785
N       1.625188   -3.131179   -0.028649
O       1.040169   -4.220705   -0.065383
O       2.833269   -2.967768   -0.016985
H       0.898950    1.763248   -0.103721
H      -0.755925    1.839923   -0.328809
H      -2.165493   -0.698148    0.037423
H      -1.025164   -3.025438   -0.034042
