13

C       0.020414    1.439624    0.066316
N      -0.014509   -0.006912   -0.022440
C      -0.182609   -0.798846   -1.111679
N      -0.153804   -2.067839   -0.772556
C       0.040149   -2.008009    0.576978
C       0.151791   -3.167632    1.483274
O       0.084267   -4.319737    1.136375
N       0.129882   -0.772238    1.070125
H       0.981721    1.766226    0.469131
H      -0.114956    1.854048   -0.933828
H      -0.780682    1.793597    0.719009
H      -0.318605   -0.399207   -2.106002
H       0.307800   -2.870601    2.541579
