15

N      -0.402664   -3.792638   -0.531593
C      -0.279300   -2.648136   -0.371131
C      -0.134300   -1.304949   -0.182339
C      -0.007045   -0.113080   -0.016491
C       0.165499    1.301038    0.204456
C      -0.018536    1.871535    1.652233
C       1.179361    2.819877    1.384753
C       1.614784    1.896663    0.216877
H      -0.461130    1.860089   -0.498810
H      -0.990152    2.310686    1.884355
H       0.218293    1.112407    2.401014
H       0.849244    3.798604    1.026242
H       1.891592    2.968200    2.197796
H       2.340067    1.145065    0.536419
H       1.962016    2.356108   -0.710006
