18

C      -0.004001    1.584573    0.214592
C      -0.012568    0.058547    0.039078
O       0.749050   -0.586269    1.061177
C      -1.379024   -0.465044   -0.038314
C      -2.509356   -0.887473   -0.053309
C      -3.848646   -1.397551   -0.081896
C      -4.289499   -2.326019   -1.204319
C      -4.108008   -2.874550    0.178424
H       1.028759    1.937221    0.278558
H      -0.500509    2.076979   -0.626656
H      -0.529916    1.866231    1.132566
H       0.518579   -0.188548   -0.888597
H       0.220800   -0.560174    1.866674
H      -4.608944   -0.715664    0.288155
H      -5.296549   -2.197243   -1.584547
H      -3.548650   -2.575993   -1.954039
H      -3.243021   -3.497737    0.370599
H      -4.989014   -3.127160    0.757574
