20

C      -0.103074    1.474166   -0.029917
C      -0.028730   -0.028719   -0.146773
C       0.871920   -0.704254   -1.120994
N       1.219209   -0.649524    0.319865
C       1.125259   -2.026915    0.858176
C       0.713159   -2.946908   -0.278636
O      -0.589451   -2.668059   -0.813892
C       0.561046   -2.138012   -1.502218
C       0.786091   -2.615871   -2.909432
H       0.865828    1.929160   -0.252913
H      -0.848563    1.881139   -0.721688
H      -0.388171    1.769231    0.985766
H      -0.949733   -0.566300    0.063396
H       1.496955   -0.131445   -1.802113
H       2.115466   -2.320094    1.227005
H       0.427657   -2.068996    1.701580
H       1.005674   -3.995988   -0.281343
H       0.120642   -2.095553   -3.606676
H       1.817552   -2.424172   -3.223086
H       0.588894   -3.687601   -2.986168
