21

C      -0.211739    1.538795    0.039589
C       0.065902    0.045394    0.018260
C       0.699633   -0.483096   -1.325556
C       1.548651   -1.636047   -0.789499
C       3.098124   -1.891117   -0.682618
C       3.277919   -0.450005   -0.154009
C       1.995803   -1.032614    0.534979
C       2.812392   -2.324139    0.814620
O       0.979343   -0.291130    1.113831
H       0.707811    2.105531   -0.136983
H      -0.936748    1.802111   -0.738128
H      -0.621428    1.842478    1.006858
H      -0.865366   -0.503689    0.212901
H      -0.082081   -0.795122   -2.022412
H       1.275499    0.310846   -1.807525
H       0.953324   -2.549459   -0.688099
H       3.742648   -2.420783   -1.381271
H       4.141393   -0.273729    0.491802
H       3.145849    0.366194   -0.864967
H       2.242061   -3.245649    0.955300
H       3.659551   -2.254741    1.501392
