14

O       0.111156   -0.090148   -0.250258
C       0.101762    1.082705    0.054469
C       1.289823    1.901048    0.107269
C       2.293555    2.563773    0.147361
C      -1.217843    1.797342    0.418558
O      -1.220768    2.978346    0.691429
C      -2.440996    0.956677    0.409893
C      -3.318988    1.070211    1.627116
N      -3.733335    1.660315    0.367099
H       3.179253    3.151308    0.182452
H      -2.381429    0.012341   -0.115407
H      -3.870170    0.188608    1.940131
H      -2.974979    1.723166    2.424552
H      -3.532527    2.661009    0.392269
