23

C      -0.564025    1.336712   -0.046879
C      -0.006059   -0.086715   -0.065465
C       0.837797   -0.365345   -1.312361
O       1.992381    0.450906   -1.350393
O       0.888631   -0.315872    1.028622
C       0.290849   -0.605116    2.265511
C      -0.273135   -2.033812    2.517951
C       0.370166   -1.968284    3.931524
C       1.288944   -0.824618    3.418911
H       0.248560    2.052380   -0.192852
H      -1.292168    1.468568   -0.853864
H      -1.068918    1.561159    0.896701
H      -0.827888   -0.818394   -0.028638
H       1.103302   -1.433838   -1.326824
H       0.259536   -0.146527   -2.216170
H       2.413860    0.341082   -0.489237
H      -0.455596    0.157352    2.529390
H      -1.351735   -2.191607    2.446567
H       0.241769   -2.755851    1.877281
H      -0.338037   -1.617435    4.686920
H       0.854329   -2.872224    4.304811
H       2.229172   -1.215697    3.019800
H       1.503004    0.016753    4.081257
