17

N       0.085377   -0.809972   -1.276717
C       0.088633    0.183271   -0.688164
C       0.077891    1.446233    0.062914
C       1.412717    2.007973    0.254569
C       2.511591    2.469331    0.412435
C       3.839838    3.051076    0.589614
C       3.929056    4.491753    0.107726
C       5.199672    5.000484   -0.461970
N       4.021048    4.795042   -1.324021
H      -0.564693    2.156696   -0.473101
H      -0.408592    1.263899    1.029877
H       4.121972    3.004283    1.649953
H       4.578028    2.441457    0.050955
H       3.289066    5.181331    0.653878
H       5.489004    6.037506   -0.319043
H       6.033409    4.306552   -0.540502
H       4.122747    3.934290   -1.857486
