17

C       0.073616    1.510444   -0.003400
N       0.058382    0.060083    0.031914
C       0.545342   -0.596599   -1.177858
C       1.094717   -1.952607   -0.707663
O       1.229735   -2.932163   -1.395094
C       1.356787   -1.831645    0.757682
C       2.218582   -0.634447    1.175700
C       0.720746   -0.530888    1.176398
H       1.085589    1.937076   -0.132720
H      -0.551490    1.865695   -0.828619
H      -0.343921    1.904934    0.928420
H      -0.246691   -0.739636   -1.919587
H       1.362146   -0.043260   -1.677937
H       1.362643   -2.728864    1.362102
H       2.728686   -0.740118    2.126668
H       2.790978   -0.116529    0.413685
H       0.189825   -0.437535    2.118469
