16

O      -0.072045    0.077932   -0.358574
C      -0.021619    1.225376   -0.051131
O      -1.020125    2.006616    0.476057
C      -0.137608    3.175215    0.544886
C       1.016777    2.348882   -0.041123
C       2.400281    2.243189    0.649011
N       3.126372    2.730662   -0.576573
C       2.804682    1.751095   -1.630579
C       1.786514    2.764134   -1.289231
H      -0.520324    3.985073   -0.080580
H      -0.017493    3.509286    1.578086
H       2.517919    2.957367    1.466846
H       2.707350    1.247328    0.982616
H       3.374959    1.909362   -2.540137
H       2.637389    0.710402   -1.364116
H       1.500815    3.574121   -1.952840
