19

C       0.171356    1.520452   -0.190858
C      -0.081891    0.035428    0.124545
C       0.616622   -0.434925    1.357479
C       0.149536   -0.967010    2.491676
C       1.380843   -1.398925    3.272132
C       1.986573   -2.607022    2.486203
O       2.438496   -1.972972    1.284130
C       2.137755   -0.570748    1.506765
O       2.347323   -0.399457    2.886171
H       1.237764    1.724810   -0.330228
H      -0.345908    1.813758   -1.109251
H      -0.186068    2.159179    0.622297
H      -1.158218   -0.143171    0.224164
H       0.257170   -0.573435   -0.725181
H      -0.873601   -1.199418    2.755361
H       1.318615   -1.498933    4.353556
H       2.841088   -3.038676    3.018055
H       1.252491   -3.387031    2.261156
H       2.806085    0.040026    0.902987
