23

C       0.039027    1.554297   -0.291111
C       0.000790    0.061692   -0.042334
C       1.253455   -0.776531   -0.127347
C       0.565257   -0.584909    1.206755
C       1.216433    0.191201    2.318827
C       0.338652    0.677178    3.511245
C       1.502186    0.332189    4.459083
O       1.096998   -0.240232    5.681426
C       2.091314   -0.583495    3.350752
H       0.971654    2.004980    0.060296
H      -0.040956    1.769531   -1.362579
H      -0.788190    2.067050    0.212722
H      -0.899145   -0.415277   -0.423362
H       1.210623   -1.748360   -0.607159
H       2.191648   -0.250269   -0.280060
H       0.002214   -1.444660    1.565794
H       1.789469    1.030323    1.912629
H      -0.040463    1.701524    3.502559
H      -0.492788   -0.011811    3.691415
H       2.147258    1.207695    4.625928
H       1.884148   -0.431331    6.201326
H       1.724175   -1.606116    3.485514
H       3.174477   -0.604116    3.204453
