19

C      -0.216970    1.525221   -0.093965
C       0.166924    0.047754    0.058506
C       0.787393   -0.534292   -1.179736
C       0.015463   -1.031231   -2.375271
C       0.918205   -1.983468   -1.606024
N       2.262052   -2.149490   -2.103361
C       2.792825   -0.986964   -2.031644
N       4.025656   -0.612388   -2.496378
O       2.064935    0.034056   -1.493064
H       0.662501    2.131280   -0.329632
H      -0.942894    1.660420   -0.902154
H      -0.659690    1.912385    0.828620
H       0.865568   -0.073725    0.895493
H      -0.720489   -0.547728    0.301739
H      -1.054889   -1.144778   -2.236008
H       0.324671   -0.726883   -3.369852
H       0.488483   -2.818222   -1.063698
H       4.645797   -1.391713   -2.656554
H       4.446784    0.162128   -2.005250
