20

O      -0.124645    1.419684    1.109363
C      -0.220222    0.008345    1.020105
C      -1.374153   -0.322075    0.076012
C      -1.560048   -1.834039   -0.039504
C      -2.754332   -2.691887    0.284498
C      -4.059442   -2.266798   -0.417798
C      -3.978155   -1.120535   -1.352155
N      -3.458857   -2.430495   -1.787797
C      -2.143308   -2.743026   -1.103628
H       0.596194    1.637302    1.707343
H       0.712769   -0.433656    0.632447
H      -0.411161   -0.446044    2.006305
H      -2.269934    0.166003    0.469146
H      -1.156340    0.132003   -0.897594
H      -0.669559   -2.354805    0.321384
H      -2.751446   -3.446085    1.061232
H      -5.005791   -2.742891   -0.180899
H      -4.899698   -0.868661   -1.871616
H      -3.313839   -0.283676   -1.204630
H      -1.543397   -3.510082   -1.578203
