18

O       0.383968    0.813935    1.181444
C       0.126366    0.028720    0.023724
C      -1.267994   -0.585647    0.015180
C      -1.667174   -1.969567   -0.302930
C      -0.832966   -3.080754    0.366374
O       0.585061   -2.862149    0.548414
C       0.362693   -2.342298    1.898533
C      -1.157919   -2.449466    1.713338
N      -1.983086   -1.344856    1.073093
H      -0.371214    1.393189    1.329269
H       0.201626    0.641250   -0.888788
H       0.906823   -0.724747   -0.024319
H      -1.998858    0.129115   -0.369846
H      -2.461594   -2.186676   -1.012496
H      -1.073437   -4.102949    0.067496
H       0.753709   -3.044240    2.644959
H       0.786635   -1.349480    2.059318
H      -1.745814   -2.927675    2.494382
