19

C      -0.103579    1.465749   -0.385948
C       0.129872    0.022918    0.019105
O       1.262116   -0.391724    0.199308
C      -1.102492   -0.809113    0.146351
C      -1.408910   -2.002757   -0.756645
C      -0.159188   -2.838159   -1.046503
C      -0.051540   -3.137291    0.495400
O       1.149584   -2.976941    1.173457
C      -1.245071   -2.192483    0.746019
H       0.851296    1.967133   -0.544993
H      -0.712636    1.516743   -1.294909
H      -0.662679    1.985745    0.400930
H      -1.993804   -0.204550    0.298815
H      -2.319174   -2.001633   -1.343650
H      -0.361814   -3.728574   -1.645255
H       0.688783   -2.303693   -1.480698
H      -0.385029   -4.162135    0.685951
H       1.450500   -2.075175    0.971624
H      -2.010821   -2.346918    1.498408
