19

C      -0.232312    1.324270    0.077153
N       0.306683   -0.022754    0.047062
C       0.650065   -0.602779   -1.156800
O       0.691852    0.013996   -2.208713
N       0.946320   -1.950036   -1.062948
C       1.522047   -2.659344   -2.190190
C       0.960743   -4.054890   -2.279956
C       1.788714   -5.197829   -2.676799
O       1.454313   -4.984702   -1.304027
H       0.175196    1.862999   -0.778308
H      -1.328196    1.346076    0.005712
H       0.069343    1.828530    0.999912
H       0.035479   -0.638413    0.797264
H       1.141648   -2.337469   -0.152811
H       1.276193   -2.080001   -3.083681
H       2.617595   -2.716149   -2.117229
H      -0.116817   -4.113401   -2.436838
H       1.323668   -6.064456   -3.143778
H       2.835810   -5.040147   -2.932681
