15

C      -0.046945    1.587245    0.129105
C       1.491047    1.514351   -0.040013
C       2.030009    0.588281    1.076397
C       0.943507   -0.491143    1.082536
C       2.149617   -0.623753    0.179331
C       1.339047    0.185976   -0.877798
C       0.014574    0.047820   -0.031495
H      -0.455221    2.003678    1.055539
H      -0.523887    2.062453   -0.734852
H       2.094957    2.364904   -0.353768
H       2.603443    0.844689    1.957365
H       0.688391   -1.057934    1.968165
H       2.910331   -1.389816    0.112252
H       1.391889    0.126471   -1.961904
H      -0.841851   -0.552086   -0.336844
