20

C      -0.003323    1.649688    0.104453
C      -0.021439    0.130286    0.023066
C       1.056247   -0.487106   -0.918581
C       1.957011   -0.708200    0.328674
C       0.700572   -0.571111    1.210162
O       0.893567    0.125522    2.412767
O      -1.366119   -0.351926   -0.105820
C      -1.964866   -0.226084   -1.303868
N      -3.180327   -0.543953   -1.440533
H       1.009387    2.019944    0.281872
H      -0.373518    2.093090   -0.825549
H      -0.636135    1.990758    0.927808
H       0.712808   -1.431296   -1.347850
H       1.445448    0.149859   -1.715474
H       2.516644   -1.641911    0.395064
H       2.638480    0.128360    0.500430
H       0.224204   -1.547191    1.371093
H       0.088982    0.059194    2.937161
H      -1.301379    0.146443   -2.095210
H      -3.464056   -0.408836   -2.408902
