21

C      -0.329540    1.533367    0.126838
C       0.155865    0.092587   -0.071586
C       0.822984   -0.486230    1.161263
O       1.985574    0.188363    1.574495
C      -0.011788   -1.145645    2.243290
C       0.896380   -1.963490    1.364397
C       0.579499   -3.098941    0.397380
O       1.789551   -3.786999    0.778550
C       2.128710   -2.769895    1.752075
H       0.507015    2.201025    0.359492
H      -0.807877    1.916009   -0.779211
H      -1.055863    1.599566    0.944312
H      -0.689387   -0.546009   -0.353293
H       0.869946    0.056991   -0.903850
H       1.720085    1.011394    1.998285
H       0.298725   -0.998182    3.273309
H      -1.085133   -1.228250    2.096352
H      -0.318951   -3.685704    0.633227
H       0.569391   -2.842469   -0.670371
H       3.092047   -2.293224    1.539521
H       2.137330   -3.170022    2.774481
