14

N       0.149633    1.346097    0.168377
C      -0.030139   -0.014322    0.051386
C      -1.190809   -0.698627    0.021343
C      -1.214883   -2.161674   -0.011637
O      -2.250361   -2.814327   -0.033409
C       0.117752   -2.772489   -0.023680
C       1.215257   -2.002516   -0.008382
O       2.474767   -2.457817   -0.031222
O       1.185384   -0.642270    0.029816
H       0.994250    1.699809   -0.258316
H      -0.666702    1.895668   -0.053003
H      -2.134476   -0.168104    0.026637
H       0.216112   -3.848615   -0.049633
H       3.076154   -1.705482    0.031200
