16

N      -0.091736   -1.143484   -0.066716
C      -0.039144    0.010790   -0.035927
C       0.031840    1.456028   -0.034703
O       0.546816    2.077854    1.147073
C       1.338166    2.146748   -0.036386
C       2.701399    1.461496   -0.047025
C       3.533507    2.419130   -0.916440
O       2.945138    3.702958   -0.724952
C       1.544588    3.505851   -0.709655
H      -0.835087    1.946162   -0.476004
H       3.079154    1.430561    0.978616
H       2.664926    0.439902   -0.431027
H       4.581953    2.484110   -0.620290
H       3.486016    2.127129   -1.977690
H       1.136261    3.490968   -1.734012
H       1.072528    4.315970   -0.148702
