19

C       0.548588    1.501712    0.312027
N       1.211456    0.350185   -0.321870
C      -0.172882    0.213067    0.141254
C      -0.422627   -0.712069    1.306269
C       0.520436   -1.805323    1.593683
O       0.515006   -0.603208    2.379223
C      -1.862906   -0.808104    1.728995
C      -2.221012   -1.202038    3.109582
N      -2.412028    0.192002    2.664952
H       0.942737    1.754041    1.290868
H       0.249310    2.344851   -0.304365
H       1.231228    0.464641   -1.331232
H      -0.961365    0.188884   -0.608858
H       0.165528   -2.695067    2.110344
H       1.393801   -1.919773    0.957292
H      -2.546304   -1.061580    0.920143
H      -3.137497   -1.755660    3.291426
H      -1.404929   -1.406833    3.795463
H      -1.639693    0.747915    3.028741
