21

C      -0.156874    1.334712    0.051911
O       0.134309   -0.045724   -0.026420
C       0.735512   -0.580213    1.105226
C       0.031214   -0.626836    2.505630
C       1.028915   -1.789721    2.713187
O       0.766090   -2.700732    3.732950
C       0.837519   -2.120096    1.196968
C       2.390455   -1.062011    2.714236
C       2.171428   -0.132061    1.480047
H       0.751084    1.949410    0.127866
H      -0.681909    1.601157   -0.868226
H      -0.805513    1.564696    0.909544
H       0.107803    0.236686    3.172067
H      -0.999650   -0.978395    2.433777
H       1.492793   -3.332375    3.768360
H      -0.119461   -2.606212    1.000373
H       1.650192   -2.614851    0.656736
H       2.552824   -0.512656    3.645986
H       3.226706   -1.756552    2.576705
H       2.875330   -0.322225    0.664968
H       2.230133    0.927671    1.742337
