16

N      -0.426043    1.102147   -0.302537
C      -0.474483   -0.153380   -0.398178
O      -0.605427   -0.900574    0.724973
C      -0.733231   -2.304129    0.549482
C      -2.161925   -2.711568    0.222708
O      -2.560319   -2.420421   -1.140592
C      -2.855544   -3.797619   -1.460923
C      -2.411529   -4.205724   -0.051895
O      -2.279518   -5.220556    0.557552
H      -0.309392    1.515321   -1.225438
H      -0.418933   -0.750041   -1.316145
H      -0.051256   -2.665135   -0.231158
H      -0.443890   -2.759546    1.500805
H      -2.852823   -2.264610    0.949803
H      -3.916750   -3.966778   -1.682021
H      -2.244433   -4.190083   -2.283030
