17

O       0.002026    1.419893   -0.139247
C       0.046130    0.020460    0.050326
C       0.218677   -0.393459    1.545011
C      -1.314000   -0.546036    1.603258
O      -2.114451   -0.557798    2.489204
C      -1.414680   -0.527771    0.064735
C      -2.526377    0.279084   -0.618876
C      -3.818084   -0.393533   -0.570170
C      -4.872883   -0.968215   -0.541709
H       0.881035    1.777279    0.020834
H       0.724516   -0.461947   -0.662673
H       0.727139   -1.354324    1.676249
H       0.662945    0.346720    2.215104
H      -1.422270   -1.562959   -0.295834
H      -2.593542    1.266749   -0.152277
H      -2.241047    0.456104   -1.663319
H      -5.811543   -1.462645   -0.503884
