14

C       0.034301    1.396064   -0.125645
N      -0.032651   -0.033396   -0.360189
C      -1.073260   -0.625061    0.011426
O      -1.164184   -1.981007   -0.198373
C      -2.308682   -2.622069    0.212159
C      -2.207553   -4.088862   -0.107239
O      -3.232647   -2.069680    0.742385
H       0.909923    1.618466    0.493753
H       0.181142    1.911017   -1.081204
H      -0.858239    1.813785    0.364952
H      -1.951479   -0.195097    0.497670
H      -3.114548   -4.595348    0.219538
H      -2.064733   -4.225646   -1.182930
H      -1.333992   -4.518216    0.391507
