19

C      -0.080622    1.446488    0.103780
C      -0.026919   -0.044161    0.018145
C      -0.153936   -0.811696   -1.063907
C      -0.037423   -2.274640   -0.735866
N       0.190011   -2.250546    0.707935
C       0.193097   -0.892256    1.246056
C       0.104413   -3.320805    1.556431
N      -0.025434   -4.558741    0.929879
O       0.101712   -3.198726    2.770561
H       0.851135    1.852283    0.517101
H      -0.244182    1.899039   -0.877430
H      -0.886727    1.775178    0.771365
H      -0.320651   -0.460995   -2.075209
H      -0.945323   -2.841626   -0.993026
H       0.797897   -2.748985   -1.279669
H       1.141684   -0.657646    1.750978
H      -0.595258   -0.763528    2.000491
H       0.420662   -4.685599    0.033856
H       0.132291   -5.318780    1.574527
