16

N      -0.029001   -1.107001    0.105081
C      -0.019580    0.048104    0.073687
C       0.018802    1.490653   -0.005552
C      -0.859576    2.242486   -1.034837
C      -0.118076    3.576770   -0.821245
C       1.302037    3.231422   -1.345027
C       1.373714    2.323257   -0.109916
C       0.427556    3.267240    0.658397
O      -0.331925    2.190821    1.225378
H      -0.780091    1.867323   -2.057401
H      -1.900352    2.232288   -0.708556
H      -0.627997    4.501065   -1.082241
H       1.386299    2.795717   -2.343886
H       2.005958    4.062179   -1.243895
H       2.271029    1.873224    0.308043
H       0.700180    4.066000    1.343499
