16

O      -0.120199    1.457048    0.088093
C      -0.021232    0.085121    0.033703
C      -0.922073   -0.813427   -0.812817
O      -0.957432   -1.810774    0.246911
C      -0.227344   -0.945661    1.119671
C       1.159179   -0.698692    0.577930
C       1.929650   -1.755963   -0.201860
C       2.876675   -2.478199    0.646810
N       3.628391   -3.030761    1.328534
H       0.593655    1.842968   -0.431457
H      -1.914051   -0.374511   -0.961546
H      -0.540285   -1.214665   -1.758837
H      -0.518202   -0.898530    2.161626
H       1.756431   -0.084602    1.247725
H       1.221232   -2.477482   -0.622671
H       2.484734   -1.312102   -1.036655
