13

O       0.281235    0.321038   -2.063568
C       0.044823    1.236036   -1.302804
C       1.089622    1.924661   -0.573603
C       2.005768    2.458853    0.015320
C       3.022206    3.064661    0.679693
C       3.927980    3.602051    1.270580
C      -1.361627    1.706524   -1.065931
C      -1.834764    2.009511    0.301309
O      -1.539589    3.048343   -0.618178
H       4.723379    4.077563    1.790352
H      -2.069979    1.345138   -1.808582
H      -2.888860    1.857437    0.526485
H      -1.146234    1.916957    1.138924
