17

O      -0.112990    1.454589    0.123378
C       0.012874    0.042745    0.116342
C      -1.379841   -0.542641   -0.140666
C      -1.409607   -2.032768   -0.139790
C      -1.531644   -2.961136   -1.133977
N      -1.483445   -4.255327   -0.634159
C      -1.333140   -4.096769    0.651036
O      -1.236932   -5.063046    1.581571
N      -1.275863   -2.794218    1.026630
H       0.763021    1.836528    0.229199
H       0.701350   -0.303651   -0.669137
H       0.403879   -0.329190    1.078063
H      -2.066956   -0.129669    0.609653
H      -1.731183   -0.184024   -1.112831
H      -1.656670   -2.776844   -2.190292
H      -1.306758   -5.899738    1.104763
H      -1.188503   -2.455971    1.969802
