12

N      -0.206291    1.417964    0.090266
C      -0.044273    0.170334   -0.036293
N       1.190911   -0.477901   -0.201918
C       1.418244   -1.460241   -0.958087
O       0.620304   -2.087281   -1.881484
C      -0.730679   -1.882499   -1.990593
N      -1.547179   -1.384963   -1.173612
C      -1.221393   -0.790274    0.059450
O      -1.824944   -1.015509    1.070561
H       0.693472    1.899808    0.012199
H       2.400979   -1.922261   -0.991911
H      -1.060600   -2.287238   -2.943873
