17

O       0.200801   -0.243394   -0.131248
C       0.128433    0.957541   -0.087293
C       1.324544    1.879780   -0.008306
C       1.338260    2.952844   -1.122735
C       1.981659    4.188331   -0.441043
O       2.288712    3.805486    0.899871
C       1.400676    2.763013    1.271979
C       0.095833    3.280198    1.707969
C      -0.964930    3.720708    2.062987
H      -0.852389    1.480572   -0.111914
H       2.227492    1.266787   -0.041284
H       1.900624    2.610355   -1.993141
H       0.320138    3.179558   -1.454563
H       2.919355    4.498542   -0.909191
H       1.291825    5.041583   -0.444452
H       1.870844    2.222583    2.098799
H      -1.898686    4.108460    2.389581
