14

N      -0.039323    1.088861    0.503005
C      -0.000754   -0.077022    0.035471
N       0.952919   -0.950821   -0.504045
C       0.044283   -2.086182   -0.645270
C      -0.243126   -2.899044    0.631895
O      -1.234278   -1.938822    1.077988
C      -1.096798   -1.149193   -0.120351
C      -2.342115   -0.847217   -0.790589
N      -3.326083   -0.613797   -1.349082
H       0.881831    1.527211    0.546183
H       1.931633   -0.997853   -0.254291
H       0.053897   -2.586809   -1.611736
H      -0.703321   -3.876129    0.447999
H       0.586865   -3.002198    1.338217
