10

N      -0.000303    1.365121    0.080277
C      -0.019855    0.016287    0.024373
C      -1.203354   -0.747449    0.013048
N      -1.143304   -2.057034   -0.014507
N       0.059102   -2.656780   -0.030375
N       1.158080   -1.946072   -0.025455
N       1.155922   -0.621658   -0.001490
H       0.889416    1.827624   -0.017660
H      -0.839026    1.902602   -0.050503
H      -2.192081   -0.293195    0.025599
