19

C      -0.172812    1.471158   -0.070788
C      -0.006577   -0.018842   -0.055460
C       0.949438   -0.871932   -0.893364
C       0.153274   -2.086456   -0.361657
O       0.469360   -2.110422    1.054027
C      -0.306691   -0.917704    1.200517
C      -0.638507   -0.437632    2.571927
C      -1.070741   -1.101459   -0.076157
O      -2.379381   -1.011461   -0.468977
H       0.713206    1.975991    0.331031
H      -0.332378    1.838908   -1.090634
H      -1.035969    1.785863    0.524443
H       0.786742   -0.709536   -1.962981
H       2.019220   -0.863141   -0.660031
H       0.167219   -3.068374   -0.830575
H       0.268822   -0.157184    3.117978
H      -1.292223    0.437442    2.527107
H      -1.150402   -1.218344    3.144221
H      -2.888618   -1.685053   -0.002594
