19

O      -0.013627    0.013613   -0.016155
C      -0.022712    1.211943    0.022224
C      -1.118083    2.275134   -0.026921
C      -1.280005    2.917411    1.389861
C      -0.035472    3.824925    1.493288
C      -0.047852    4.520337    0.116580
C      -0.041921    3.223896   -0.692033
C       1.055507    2.291965   -0.037966
C       1.221851    2.936785    1.377149
H      -2.057664    2.036289   -0.525704
H      -2.196987    3.514346    1.426553
H      -1.340971    2.166564    2.183395
H      -0.036133    4.482203    2.364751
H      -0.942890    5.128021   -0.050372
H       0.835925    5.141796   -0.059410
H      -0.047839    3.274876   -1.778937
H       1.993558    2.067661   -0.546288
H       2.129804    3.547852    1.404568
H       1.302498    2.187034    2.169963
