14

N      -0.070204    1.243897    0.007931
C      -0.027740   -0.008445    0.000751
C      -1.247034   -0.938038    0.002457
N      -0.598365   -2.230927   -0.008354
C      -0.849379   -3.579958   -0.014420
N       0.272454   -4.259589   -0.024483
C       1.310791   -3.339712   -0.025232
C       0.760525   -2.093982   -0.015236
O       1.130335   -0.775843   -0.010012
H       0.863928    1.654218    0.004953
H      -1.856015   -0.772588    0.895800
H      -1.866011   -0.762737   -0.882094
H      -1.846575   -3.990859   -0.011091
H       2.345328   -3.637105   -0.032696
