15

C      -0.008381    1.373289   -0.004933
O       0.014214   -0.059335   -0.019412
C       0.619574   -0.606879   -1.076846
O       1.128196    0.017789   -1.985200
C       0.614851   -2.076324   -1.043967
N       0.114472   -2.907669   -0.147628
C       0.395271   -4.156650   -0.621855
C       1.074584   -4.082252   -1.820804
N       1.205966   -2.749248   -2.075304
H       1.008201    1.774914   -0.000196
H      -0.534914    1.759559   -0.881435
H      -0.533114    1.648840    0.909354
H       0.099103   -5.044826   -0.084616
H       1.459749   -4.836170   -2.487091
H       1.646086   -2.294166   -2.859493
