16

C       0.051633    1.431829    0.005687
C      -0.003529   -0.082933   -0.030420
O       1.036351   -0.743554   -0.078647
C      -1.289246   -0.748917   -0.007679
C      -2.580744   -0.231117    0.044683
N      -3.439801   -1.273705    0.045024
C      -2.758708   -2.484514   -0.006041
C      -1.419620   -2.183443   -0.039420
O      -0.391423   -3.045695   -0.092310
H       1.092463    1.756102   -0.018230
H      -0.483374    1.856157   -0.850583
H      -0.429100    1.812115    0.913305
H      -2.931419    0.787589    0.080789
H      -4.440890   -1.190619    0.077828
H      -3.278295   -3.426615   -0.013664
H       0.410201   -2.481697   -0.102709
