10

O       0.128934    1.365131    0.042431
C       0.081068    0.036974   -0.020945
C       0.013210   -0.744685   -1.145351
O      -0.015751   -2.058979   -0.702829
C       0.036061   -1.967120    0.628039
N       0.094709   -0.757276    1.098990
C      -0.027679   -0.473765   -2.519621
N      -0.060750   -0.231377   -3.652906
H       0.171452    1.612068    0.975563
H       0.024648   -2.891611    1.184126
