19

C      -0.055437    1.566095    0.000571
C       1.490156    1.554941   -0.018292
C       2.113118    0.882845    1.267839
C       1.008612    0.476104    2.252129
C       0.355512   -0.613571    1.376818
O       1.487735   -1.458006    1.108029
C       2.304171   -0.482323    0.476690
C       1.450819    0.127492   -0.646039
C       0.010380    0.011479   -0.017097
H      -0.596207    2.066341    0.809598
H      -0.436116    1.944967   -0.952688
H       2.041210    2.395231   -0.440831
H       2.986536    1.366087    1.703265
H       1.416055    0.016690    3.156579
H       0.349621    1.297046    2.539593
H      -0.436984   -1.202937    1.837353
H       3.300391   -0.875290    0.282453
H       1.584011   -0.107172   -1.701278
H      -0.758380   -0.545174   -0.553266
