18

C      -0.033000    1.427457    0.007996
C       1.345303    0.794937   -0.080425
C       1.674359    0.099959    1.247364
O       0.412416   -0.631733    1.254766
C       0.091539   -0.059781   -0.018317
C       0.013809   -0.888930   -1.268560
N      -0.146779   -0.048714   -2.470365
C       1.201583   -0.537938   -2.116464
C       2.063680    0.522479   -1.399882
H      -0.336205    1.910120    0.932935
H      -0.394364    1.880219   -0.906657
H       2.521796   -0.592373    1.173922
H       1.787500    0.725564    2.141260
H      -0.414387   -1.884553   -1.235386
H      -0.529856   -0.604857   -3.230252
H       1.675556   -1.255041   -2.781735
H       2.187204    1.413679   -2.023075
H       3.063149    0.117474   -1.207772
