17

C      -0.082075    1.487046    0.030523
C       0.015636   -0.012456   -0.021460
C       0.655307   -0.666790   -1.273545
O       0.115388   -1.995828   -1.239423
C      -0.757149   -2.001153   -0.111158
C       0.080416   -2.121745    1.172602
C       0.682550   -0.707594    1.187840
O       1.487518   -0.236570    1.943502
O      -1.265769   -0.680600   -0.032103
H       0.917299    1.911815    0.158133
H      -0.527135    1.885605   -0.884823
H      -0.690856    1.798123    0.883085
H       0.330245   -0.155449   -2.187146
H       1.749449   -0.695522   -1.239789
H      -1.558656   -2.722154   -0.264355
H      -0.551839   -2.280404    2.051931
H       0.852730   -2.892508    1.142870
