20

C      -0.043472    1.426928   -0.400882
C      -0.074656   -0.034224    0.050785
O       0.615310   -0.219794    1.276914
C      -1.507328   -0.608111    0.188753
C      -1.395800   -2.111041    0.435055
O      -1.165913   -2.903698   -0.439707
N      -2.165312    0.017202    1.334086
C      -3.111074    1.098801    1.068257
C      -3.598405   -0.238297    1.495807
H       0.995700    1.757792   -0.476636
H      -0.519526    1.552638   -1.379453
H      -0.551926    2.075597    0.318903
H       0.446581   -0.650756   -0.689869
H       0.004300    0.077379    1.965558
H      -2.054974   -0.467387   -0.757878
H      -1.532418   -2.422974    1.492835
H      -3.090458    1.926120    1.771312
H      -3.275658    1.385105    0.031689
H      -4.092126   -0.851611    0.744365
H      -3.935409   -0.403097    2.514504
