19

C       0.124538    1.361363   -0.498997
C      -0.126562    0.108272    0.356075
C      -1.491595   -0.479546    0.158024
N      -2.393762   -0.425464    1.132651
N      -3.503685   -1.033964    0.625401
C      -4.716531   -1.123010    1.404932
C      -3.300432   -1.449607   -0.644117
O      -4.312851   -2.070327   -1.294087
C      -2.008789   -1.118127   -0.998109
H       1.130243    1.757368   -0.325528
H       0.030323    1.139656   -1.567004
H      -0.598191    2.146699   -0.257540
H       0.636094   -0.645826    0.123527
H      -0.018975    0.353969    1.416938
H      -5.271341   -0.178384    1.388974
H      -5.346520   -1.913005    0.993853
H      -4.453515   -1.360359    2.437225
H      -3.994973   -2.349219   -2.158002
H      -1.515955   -1.314892   -1.936818
