21

C       0.035181    1.550518   -0.005175
C       0.004537    0.005899    0.017788
C       0.556054   -0.518780   -1.321328
O       0.162627   -1.827928   -1.686724
C       0.510657   -2.865176   -0.768884
C       1.966524   -2.874814   -0.397445
C       2.473379   -2.142433    0.602259
C       1.720951   -1.280060    1.518137
C       0.684815   -0.459391    1.289075
H       1.059055    1.917271   -0.137825
H      -0.575881    1.941141   -0.824737
H      -0.347206    1.968605    0.930829
H      -1.052412   -0.295247    0.075134
H       0.158586    0.108829   -2.125516
H       1.649489   -0.409546   -1.333212
H      -0.099721   -2.785604    0.142118
H       0.232807   -3.790659   -1.281064
H       2.635005   -3.485481   -0.998410
H       3.536700   -2.231963    0.821302
H       2.070748   -1.327064    2.549585
H       0.278290    0.036728    2.171208
