11

O       0.071153    1.294646    0.108694
C       0.062123   -0.030300    0.042693
N       0.094653   -0.600186   -1.167201
C       0.083140   -1.921231   -1.159020
C       0.039684   -2.622131    0.053108
N       0.008888   -1.969457    1.227558
N       0.019959   -0.656587    1.231154
C       0.026600   -4.052206    0.083402
N       0.017564   -5.208544    0.057775
H       0.102031    1.629179   -0.799187
H       0.108280   -2.439228   -2.113703
