19

O       0.071741    1.434840   -0.127990
C      -0.010652    0.029116    0.007208
C       0.913580   -0.547366   -1.076100
C       2.342169   -0.091838   -0.863900
O       3.199012   -0.785561   -0.374222
C       0.251389   -0.605217    1.426351
C      -1.113893   -1.295681    1.335446
C      -2.187234   -0.256437    1.226323
C      -1.400916   -0.616782   -0.008192
H      -0.588099    1.832394    0.449190
H       0.882336   -1.639017   -1.046031
H       0.556756   -0.194510   -2.051046
H       2.554712    0.954299   -1.168083
H       1.112307   -1.275874    1.431727
H       0.361776    0.114409    2.244310
H      -1.323933   -2.316672    1.626051
H      -3.210483   -0.617543    1.228617
H      -2.068121    0.706448    1.722389
H      -1.889368   -1.011443   -0.892148
