20

C       0.059854    1.381290    0.473826
C       0.088811   -0.057042    0.013060
C       1.388975   -0.814126   -0.080173
N       0.403687   -1.125192    0.933342
C       0.519523   -1.032837    2.312291
O      -0.300731   -0.447341    2.990536
C       1.690605   -1.803097    2.899636
C       1.582482   -1.956934    4.409863
O       2.745549   -2.648548    4.843400
H       0.919809    1.614897    1.108056
H       0.077946    2.051150   -0.391783
H      -0.843441    1.582745    1.054921
H      -0.683820   -0.321512   -0.707874
H       1.539884   -1.564269   -0.852536
H       2.290364   -0.287985    0.228916
H       1.764528   -2.784574    2.419275
H       2.624264   -1.278810    2.656851
H       1.498113   -0.965340    4.874152
H       0.664620   -2.508575    4.659865
H       2.693693   -2.745500    5.798502
