15

C      -0.240479    1.410961    0.127655
C       0.062926   -0.091717   -0.046729
C       0.833244   -0.388180   -1.333901
O       0.002774    0.012257   -2.410907
C       0.809955   -0.628933    1.152980
O       1.921773   -1.095437    1.134961
C       0.070740   -0.548393    2.436947
N      -0.513122   -0.493610    3.433554
H       0.687051    1.986531    0.212375
H      -0.785169    1.761775   -0.749952
H      -0.846727    1.597962    1.017622
H      -0.898557   -0.623855   -0.088435
H       1.786268    0.160870   -1.325328
H       1.074336   -1.459232   -1.382284
H       0.483345   -0.129299   -3.231404
