19

C      -0.064063    1.494955   -0.039690
C      -0.121550    0.000121    0.225794
O      -1.335859   -0.501512   -0.299665
C      -1.487073   -1.879807   -0.145325
C      -1.845824   -2.488562    1.270793
C      -3.078364   -3.114298    0.611695
N      -3.896975   -1.971518    0.149681
C      -2.781783   -2.462524   -0.697483
H       0.864051    1.918545    0.355900
H      -0.108677    1.694747   -1.114052
H      -0.908991    1.999658    0.436956
H       0.735509   -0.511108   -0.246275
H      -0.059722   -0.201516    1.307514
H      -0.620243   -2.415976   -0.563782
H      -1.102497   -3.203083    1.629437
H      -2.079922   -1.758264    2.048455
H      -3.522268   -4.081383    0.810378
H      -4.750508   -2.355586   -0.256181
H      -2.965343   -2.798988   -1.710532
