22

O       0.072407    1.367409    0.003534
C       0.084980   -0.051108    0.083938
C      -1.348873   -0.537158   -0.086043
C      -1.481213   -2.059493    0.020989
O      -0.973940   -2.544860    1.264910
C      -2.922130   -2.522820   -0.217961
N      -2.998274   -3.966852   -0.371422
C      -3.179622   -4.753544    0.840534
C      -4.297703   -4.585069   -0.127390
H       0.969914    1.682041    0.144780
H       0.717941   -0.490626   -0.704461
H       0.479041   -0.399627    1.048652
H      -1.976442   -0.053670    0.676278
H      -1.725189   -0.198918   -1.058477
H      -0.848583   -2.539982   -0.734753
H      -1.467415   -2.107114    1.968310
H      -3.560569   -2.150653    0.609321
H      -3.298049   -2.065571   -1.141279
H      -2.619475   -5.682511    0.889516
H      -3.255550   -4.222614    1.787100
H      -5.121832   -3.939137    0.173430
H      -4.574248   -5.387043   -0.805900
