21

O       0.175676    0.450997   -1.444689
C      -0.150436    0.347577   -0.059569
C      -1.435976   -0.420822    0.074325
C      -1.515434   -1.916505   -0.199877
C      -0.289982   -2.768296   -0.508820
C       0.126193   -3.525098    0.759545
C       0.403301   -2.539627    1.888269
O      -0.668812   -1.636974    2.172572
C      -1.654323   -1.400661    1.208069
H       0.953884    1.011530   -1.523448
H       0.656961   -0.144452    0.498866
H      -0.281658    1.344895    0.387782
H      -2.313455    0.142959   -0.230399
H      -2.434983   -2.250018   -0.670553
H      -0.524338   -3.470406   -1.313779
H       0.538173   -2.150836   -0.872472
H      -0.671694   -4.217088    1.055763
H       1.030183   -4.121225    0.592224
H       0.607546   -3.064786    2.827815
H       1.304627   -1.956586    1.638893
H      -2.636632   -1.410747    1.672580
