23

C      -0.076097    1.562356    0.113487
C      -0.030058    0.035361    0.001530
C       0.728046   -0.495145   -1.224072
C       2.214207   -0.089085   -1.253874
C       2.945988   -0.760324   -2.418725
O       2.775217   -2.173832   -2.412542
C       1.404627   -2.529496   -2.543852
C       0.628831   -2.035118   -1.322090
O       1.129744   -2.675224   -0.152786
H       0.920305    1.993592    0.251946
H      -0.512007    2.016305   -0.784266
H      -0.685381    1.871084    0.968634
H       0.418343   -0.397311    0.902586
H      -1.057191   -0.351260   -0.037724
H       0.247236   -0.091074   -2.129248
H       2.324664    0.996938   -1.339781
H       2.690130   -0.384347   -0.310125
H       2.582919   -0.352797   -3.377739
H       4.024370   -0.584716   -2.366365
H       0.982950   -2.112310   -3.472849
H       1.373013   -3.621231   -2.601267
H      -0.424393   -2.330189   -1.406897
H       2.084207   -2.748536   -0.277021
