21

C       0.024753    1.500708    0.074049
C      -0.070938    0.013827   -0.013748
C      -0.121450   -0.777169   -1.094035
C      -0.060294   -2.218457   -0.603439
C      -0.374282   -3.327622   -1.576806
C      -0.850716   -2.100425    0.713832
C       0.022812   -0.916120    1.192559
C       1.418465   -1.602247    1.073373
O       1.301982   -2.424588   -0.088280
H       0.959019    1.812290    0.558997
H      -0.012070    1.964535   -0.915560
H      -0.791310    1.917481    0.678245
H      -0.080111   -0.474898   -2.134015
H       0.326117   -3.309503   -2.417428
H      -0.292992   -4.302754   -1.088553
H      -1.388364   -3.214436   -1.971715
H      -1.897289   -1.826434    0.570563
H      -0.770241   -2.998808    1.334151
H      -0.187282   -0.478443    2.169228
H       2.234003   -0.878770    0.950661
H       1.633336   -2.228697    1.949081
