23

C      -0.006024    1.403175   -0.004073
O       0.013283   -0.002773    0.013385
C      -1.278082   -0.573444    0.023429
C      -1.147712   -2.097860   -0.019087
C      -2.514414   -2.771134    0.186309
C      -2.447710   -4.269593   -0.131018
C      -2.041329   -4.504838   -1.593198
C      -0.906011   -3.606248   -2.011333
C      -0.498537   -2.552165   -1.305206
H       1.031572    1.746377   -0.010460
H      -0.515745    1.795252   -0.898742
H      -0.510978    1.816650    0.883826
H      -1.824054   -0.265886    0.932547
H      -1.861488   -0.219162   -0.844497
H      -0.487613   -2.367095    0.819887
H      -2.861870   -2.609087    1.213037
H      -3.253118   -2.296388   -0.474953
H      -1.709126   -4.742193    0.529140
H      -3.409754   -4.749421    0.078353
H      -1.759995   -5.554888   -1.744264
H      -2.903442   -4.337760   -2.256895
H      -0.402799   -3.852972   -2.943954
H       0.339376   -1.951815   -1.647963
