21

C       0.004190    1.635694    0.122663
C      -0.209012    0.123892   -0.027427
C       0.603722   -0.468505   -1.167184
O       0.125287    0.082027   -2.359782
C       2.157732   -0.653722   -1.098506
C       2.002706   -1.838715   -0.128380
C       0.952568   -2.005484   -1.251959
C       0.072671   -3.159988   -1.609948
O       2.030298   -1.616190   -2.228271
H       1.041884    1.865457    0.388527
H      -0.225030    2.150021   -0.813321
H      -0.638355    2.043933    0.908348
H       0.017956   -0.380432    0.915197
H      -1.264656   -0.076540   -0.245873
H       0.689926   -0.304355   -3.046566
H       2.957252    0.083993   -1.173347
H       2.820735   -2.557484   -0.180204
H       1.667571   -1.657779    0.893301
H      -0.612608   -3.380058   -0.785163
H      -0.522745   -2.920219   -2.496421
H       0.666569   -4.055429   -1.815901
