23

C      -0.137065    1.291410   -0.487925
C       1.276619    0.907684   -0.150054
C       2.034768    1.456409    1.065210
C       2.332152    0.461849    2.210805
C       1.364182    0.581161    3.399865
C      -0.126226    0.579056    3.002490
C      -0.548173   -0.662876    2.264538
C      -0.395195   -0.939558    0.966105
C       0.181731   -0.160943   -0.164293
H      -0.692323    1.848007    0.259409
H      -0.399807    1.546695   -1.509377
H       1.922865    0.806089   -1.018115
H       2.983922    1.845879    0.682470
H       1.514782    2.332417    1.470367
H       2.314107   -0.559558    1.818243
H       3.348457    0.628464    2.585927
H       1.557965   -0.236134    4.105975
H       1.570850    1.514076    3.941120
H      -0.730997    0.683679    3.910287
H      -0.333066    1.472302    2.404160
H      -0.998254   -1.441139    2.877760
H      -0.752681   -1.916814    0.645177
H       0.248817   -0.780791   -1.053921
