19

C       0.040787    1.406450    0.078028
O      -0.101723    0.015708   -0.113842
C       0.699533   -0.535728   -1.147014
C       2.174498   -0.642898   -0.765683
C       0.059285   -1.914070   -1.430873
C      -1.446220   -1.726966   -1.684843
O      -2.307079   -2.352897   -1.134773
C       0.643855   -2.563482   -2.596707
C       1.085719   -3.075841   -3.590771
H       1.030490    1.677173    0.470815
H      -0.126313    1.962677   -0.857131
H      -0.716121    1.705277    0.806694
H       0.599870    0.081496   -2.056253
H       2.615387    0.345272   -0.609410
H       2.284630   -1.220702    0.157261
H       2.735381   -1.139981   -1.561293
H       0.158154   -2.547115   -0.541945
H      -1.672641   -0.963759   -2.462327
H       1.485762   -3.545318   -4.455472
