22

C      -0.179754    1.562286    0.044066
C       0.046888    0.049911   -0.072744
O       0.687062   -0.286426   -1.308335
C       2.090810   -0.086453   -1.318386
C       2.798955   -1.062247   -0.376341
C       2.155955   -1.055768    1.006694
C       0.770946   -0.496426    1.153483
N       1.024980   -1.916083    1.357545
C       0.510335   -2.904059    0.417570
H       0.758385    2.106003    0.193657
H      -0.655624    1.934945   -0.866478
H      -0.832214    1.786181    0.893796
H      -0.934000   -0.435935   -0.151335
H       2.404390   -0.235458   -2.355906
H       2.341712    0.948626   -1.041323
H       2.781298   -2.070100   -0.805989
H       3.852878   -0.779133   -0.286098
H       2.851548   -0.921794    1.832961
H       0.514450    0.037986    2.067694
H       0.464055   -2.576340   -0.628449
H       1.134162   -3.802050    0.478235
H      -0.499801   -3.184330    0.734033
