18

C       0.099141    1.317458   -0.275240
C      -0.101086   -0.117811    0.215502
O       0.192658   -1.082098   -0.800945
C       1.583717   -1.380593   -0.752837
C       1.964475   -1.318631    0.731069
C       0.831716   -0.476110    1.370265
O       0.376362   -1.652914    2.114365
C       1.384822   -2.431654    1.581917
N       1.676221   -3.635290    1.766836
H       1.150165    1.529797   -0.498149
H      -0.481099    1.479721   -1.186739
H      -0.235500    2.033782    0.482059
H      -1.145772   -0.277444    0.499932
H       1.729238   -2.370725   -1.190698
H       2.173259   -0.651226   -1.328437
H       3.004062   -1.060634    0.927057
H       1.073151    0.342480    2.049026
H       1.030811   -4.081513    2.420758
