21

C       0.335481   -2.796855    0.174458
C      -0.065542   -1.470950    0.832263
C      -1.549307   -1.198961    0.681718
C      -2.526442   -1.626468    1.720630
N      -2.269082   -0.204566    1.480838
C      -1.563505    0.548869    2.517301
C      -2.567664    1.433365    3.255546
O      -3.611867    0.679213    3.845758
H       1.412075   -2.970926    0.261162
H      -0.182670   -3.640583    0.641736
H       0.082014   -2.801514   -0.891284
H       0.213471   -1.487202    1.890654
H       0.501227   -0.650126    0.372913
H      -1.885370   -1.216255   -0.355937
H      -3.514102   -1.990713    1.447595
H      -2.121377   -2.061966    2.633547
H      -1.050451   -0.099259    3.244840
H      -0.807122    1.185964    2.041985
H      -2.065591    1.963668    4.071962
H      -2.966224    2.184637    2.557056
H      -4.080253    0.255884    3.118245
