16

O      -0.217523    1.468143   -0.212861
C       0.007394    0.073394   -0.053484
C      -1.371912   -0.559445    0.130789
N      -2.256417   -0.234068   -0.996686
C      -2.288658   -1.348763   -1.806920
N      -1.850379   -2.453011   -1.330971
C      -1.397247   -2.125781    0.041938
C      -0.114657   -2.762253    0.358533
N       0.900142   -3.242145    0.631802
H       0.625902    1.895569   -0.387340
H       0.498795   -0.358779   -0.937829
H       0.634391   -0.143443    0.821785
H      -1.803531   -0.205002    1.070065
H      -2.128587    0.681613   -1.406836
H      -2.722809   -1.271657   -2.799517
H      -2.136747   -2.518945    0.751826
