16

O       0.304590    0.846018   -0.728330
C      -0.205904   -0.194484    0.064262
C       0.222475   -0.278250    1.558609
C      -1.266006   -0.478182    1.939869
C      -1.662628    0.047561    0.509156
C      -1.664700   -1.915636    2.128233
O      -0.955141   -2.876483    1.960480
C      -3.082117   -2.106722    2.520413
N      -4.188638   -2.242400    2.827784
H       1.179033    0.594299   -1.041811
H      -0.096233   -1.170106   -0.427144
H       0.910334   -1.073131    1.849185
H       0.588628    0.690537    1.905531
H      -1.667013    0.111636    2.767936
H      -1.876817    1.117536    0.543369
H      -2.463657   -0.465365   -0.026884
