23

C      -0.050032    1.463236   -0.345496
C      -0.128000   -0.036460   -0.118946
C      -0.339161   -0.595167    1.264898
C      -1.438429   -0.691543    0.233644
C       1.339150    2.019614   -0.174302
C       1.909895    2.427313    1.156876
C       1.816683    3.458395    0.063087
C       2.969131    3.268475   -0.928207
C       2.495428    1.796782   -1.166439
H      -0.412910    1.694788   -1.357522
H      -0.735109    1.967950    0.348796
H       0.528195   -0.616081   -0.764003
H       0.184918   -1.501656    1.547221
H      -0.471763    0.109228    2.079702
H      -2.306433   -0.051579    0.358081
H      -1.664613   -1.663580   -0.190904
H       1.183987    2.533839    1.957336
H       2.880957    2.061483    1.486531
H       1.228670    4.361371    0.183803
H       2.873835    3.882389   -1.826713
H       3.977398    3.403703   -0.521737
H       3.202470    0.999541   -0.913012
H       2.148064    1.637851   -2.191156
