16

N      -0.110123    1.282497   -0.274063
C      -0.042924    0.046092    0.010208
N       1.096917   -0.687966    0.350166
C       1.037516   -2.054815    0.636257
N       2.000686   -2.821955    0.949021
C      -0.382099   -2.571851    0.515867
C      -1.003196   -2.118422   -0.825792
C      -1.273358   -0.838806   -0.000563
O      -1.254617   -1.638961    1.217097
H       0.806154    1.736067   -0.238211
H       1.980087   -0.205793    0.444068
H       2.895431   -2.326515    0.972397
H      -0.458318   -3.600628    0.863343
H      -0.370102   -2.057040   -1.712404
H      -1.926759   -2.656867   -1.038826
H      -2.180397   -0.252058   -0.134496
