21

C      -0.202158    1.553741   -0.013010
C       0.080065    0.053659   -0.005599
C       0.940738   -0.482185   -1.183110
O       2.053980    0.354620   -1.458305
C       1.298058   -1.908755   -0.717371
C       2.545774   -2.098973    0.096681
C       1.229303   -1.911608    0.802490
C       0.827750   -0.499563    1.233329
O       2.007795    0.271401    1.519953
H       0.721118    2.137998   -0.050689
H      -0.789065    1.834057   -0.893189
H      -0.772927    1.855816    0.873080
H      -0.872896   -0.491082   -0.043844
H       0.370048   -0.514766   -2.115527
H       2.481992    0.531672   -0.610419
H       0.923606   -2.743729   -1.298571
H       2.970009   -3.097241    0.119017
H       3.283154   -1.307566    0.135926
H       0.808132   -2.743327    1.354694
H       0.186987   -0.526255    2.124020
H       1.722546    1.139352    1.824159
