17

O      -0.948799    1.278259    0.342563
C       0.116050    0.759366    0.136161
C       1.422610    1.543681    0.010218
N       2.559392    0.683698   -0.380421
C       2.881955    1.097371   -1.749324
C       1.640519    0.893221   -2.646779
N       1.215111    2.325475   -2.483446
C       2.567611    2.619920   -1.878995
C       1.360009    2.668220   -1.039296
H       0.238095   -0.342660    0.040876
H       1.593130    1.993059    0.996878
H       3.352498    0.869865    0.225026
H       3.838611    0.698869   -2.084160
H       1.891305    0.728899   -3.696996
H       0.909477    0.141476   -2.328057
H       3.194291    3.448424   -2.187726
H       0.872700    3.599783   -0.780521
