15

N       0.078907    1.357136    0.383653
C      -0.032354    0.013263    0.088361
C      -1.241150   -0.631417    0.078882
C      -1.485081   -2.015244   -0.174930
C      -0.607249   -3.049344   -0.176058
C       0.797499   -2.942159    0.236227
O       1.345450   -3.775671    0.926437
N       1.539068   -1.874765   -0.297066
C       1.207276   -0.642818   -0.321731
H       0.902675    1.835023    0.053105
H      -0.760141    1.914739    0.344082
H      -2.124394   -0.014304    0.229893
H      -2.530628   -2.264110   -0.343779
H      -0.966379   -4.060114   -0.341157
H       1.950250    0.041938   -0.750253
