17

C       0.220830    1.204524   -0.372352
C       0.373934   -0.299151   -0.131642
N      -0.825453   -1.112562   -0.001997
C      -1.968661   -0.581583   -0.087514
N      -3.107934   -1.371948    0.038512
C      -4.383803   -0.898136   -0.037847
O      -4.716132    0.256103   -0.222732
C      -5.435355   -1.996611    0.137624
O      -5.159745   -3.153183    0.323253
H       1.210389    1.664930   -0.445586
H      -0.313467    1.416716   -1.304440
H      -0.314259    1.696924    0.446494
H       0.966896   -0.743136   -0.942439
H       0.966141   -0.467847    0.777727
H      -2.205990    0.469610   -0.255866
H      -2.986830   -2.365194    0.197550
H      -6.471182   -1.610758    0.075202
