21

O      -0.072927    1.389427    0.042924
C      -0.006524   -0.003157   -0.028585
C       0.257854   -0.788400   -1.336345
C      -0.420698   -1.931699   -0.532223
C       0.647487   -2.203357    0.548977
C       0.746329   -0.755924    1.117112
C      -0.225108   -0.625915    2.303702
C      -1.601913   -0.957841    1.651404
C      -1.308594   -0.823693    0.150150
H       0.825689    1.736603    0.048521
H      -0.360431   -0.413329   -2.155364
H       1.287920   -0.940381   -1.675041
H      -0.870107   -2.788620   -1.032828
H       0.337164   -2.926881    1.309146
H       1.582740   -2.561418    0.108354
H       1.762993   -0.407641    1.319142
H       0.032950   -1.292754    3.131769
H      -0.220773    0.400120    2.684700
H      -1.950799   -1.963160    1.910072
H      -2.380388   -0.259794    1.970887
H      -2.138258   -0.502208   -0.480674
