23

C       0.591586    1.297714   -0.369032
C       0.242441   -0.160251   -0.057775
C       0.558870   -0.538383    1.379438
C       0.528599   -2.030991    1.769316
C       2.026357   -1.848750    2.107371
C       2.415253   -1.962611    3.572356
C       3.012036   -2.573656    1.188048
O       4.270721   -1.931070    1.208842
O       1.977025   -0.445988    1.688361
H       1.651037    1.486386   -0.173262
H       0.388820    1.539884   -1.416287
H       0.008722    1.985812    0.253287
H      -0.826796   -0.342678   -0.231130
H       0.790620   -0.830150   -0.731884
H      -0.010102    0.107266    2.063575
H      -0.110995   -2.286102    2.615575
H       0.322593   -2.715655    0.942462
H       2.319365   -2.999678    3.912913
H       3.454753   -1.651753    3.705927
H       1.773915   -1.331714    4.193733
H       3.167918   -3.605450    1.523237
H       2.599260   -2.609679    0.167168
H       4.082457   -0.999061    1.036595
