17

O      -0.188086    1.453712    0.211723
C      -0.051905    0.070466    0.054576
C       0.377580   -0.805961    1.275468
C      -0.867163   -1.710359    1.063285
C      -2.084644   -1.258979    1.873115
O      -2.376525   -0.199712    0.930211
C      -1.400548   -0.695050   -0.016881
C      -1.953266   -1.026191   -1.306704
C      -2.383710   -1.314012   -2.392310
H       0.667140    1.864619    0.053768
H       0.543045   -0.187604   -0.832583
H       1.344478   -1.301027    1.166218
H       0.359967   -0.258197    2.221099
H      -0.714011   -2.769514    0.869605
H      -2.903763   -1.988863    1.912883
H      -1.891492   -0.873666    2.881079
H      -2.775949   -1.561453   -3.347684
