23

C      -0.027715    1.503658    0.025197
C      -0.018478   -0.012416   -0.010060
C      -0.864697   -0.773930    0.986701
C       0.639371   -0.747340    1.134433
C       1.507179   -1.970314    0.884406
C       2.708720   -1.668886   -0.030015
C       2.354490   -1.541346   -1.518299
O       1.501916   -0.465798   -1.867665
C       0.166147   -0.595634   -1.400905
H       0.881775    1.900830   -0.438044
H      -0.887565    1.908859   -0.522132
H      -0.078414    1.880042    1.051723
H      -1.468328   -0.205519    1.687117
H      -1.322288   -1.705627    0.666098
H       1.019811   -0.099776    1.921572
H       1.863830   -2.356764    1.846561
H       0.913367   -2.780757    0.442833
H       3.208520   -0.751079    0.303607
H       3.446958   -2.477972    0.051713
H       3.270668   -1.383254   -2.097366
H       1.908141   -2.491774   -1.861369
H      -0.143993   -1.650533   -1.432788
H      -0.460337   -0.050039   -2.117073
