21

C      -0.031333    1.508851    0.009745
C       0.068306   -0.006537    0.012228
O       1.137087   -0.574243    0.038221
C      -1.248627   -0.780028   -0.004858
C      -1.099588   -2.160901   -0.657836
C      -2.448494   -2.888586   -0.726908
C      -3.224963   -2.773174    0.558577
C      -2.913731   -1.915627    1.528947
C      -1.771018   -0.936145    1.445628
H       0.950929    1.950337    0.182324
H      -0.414676    1.846709   -0.960786
H      -0.740388    1.859831    0.767106
H      -1.992031   -0.191508   -0.559914
H      -0.666179   -2.061786   -1.658185
H      -0.384592   -2.745105   -0.069995
H      -3.054724   -2.493935   -1.556520
H      -2.287879   -3.947320   -0.966843
H      -4.078109   -3.436330    0.681383
H      -3.499815   -1.896718    2.444893
H      -0.947922   -1.266793    2.096076
H      -2.090753    0.036076    1.841524
