19

O      -0.115626    1.557998    0.009324
C       0.072919    0.193878    0.347382
C      -1.221514   -0.575401    0.159544
O      -1.762457   -0.442869   -1.196515
C      -2.100288   -1.859909   -1.233079
C      -1.156430   -2.786407   -2.026189
C       0.244085   -2.266078   -1.981079
C      -0.299090   -2.947922   -0.752197
C      -1.318791   -2.113047    0.065505
H      -0.521993    1.564336   -0.865651
H       0.893069   -0.254209   -0.227964
H       0.358316    0.163345    1.405363
H      -1.962999   -0.179881    0.868759
H      -3.173375   -2.029648   -1.343213
H      -1.482965   -3.532597   -2.740174
H       0.967204   -2.863067   -2.527942
H       0.418118   -1.199413   -2.026898
H       0.170205   -3.846134   -0.369866
H      -1.759218   -2.647933    0.905428
