16

C       0.005877    1.445348   -0.098589
C      -0.004167   -0.045877   -0.016879
O       0.575882   -0.828424   -1.111092
C       0.109646   -1.833082   -0.169774
C       0.507763   -1.024443    1.097535
C      -0.888953   -1.155210    1.741255
C      -1.189179   -1.037400    0.228093
O      -2.395190   -0.950544   -0.425480
H       1.029959    1.818714   -0.192835
H      -0.569382    1.780934   -0.966537
H      -0.441578    1.878793    0.801369
H       0.260169   -2.886814   -0.403084
H       1.488762   -1.009630    1.565422
H      -1.117000   -2.114020    2.216667
H      -1.219460   -0.325033    2.371529
H      -2.905463   -1.748576   -0.249469
