25

C      -0.197615    1.702038   -0.356647
C      -0.223552    0.173661   -0.245827
C       0.776160   -0.519681   -1.173839
C       2.267149   -0.310732   -0.832272
C       3.020551   -1.538076   -1.428142
C       1.925047   -2.444814   -2.032088
C       0.623280   -2.055065   -1.297700
C       0.501403   -2.775944    0.050950
O      -0.545180   -2.297812   -2.080619
H       0.780217    2.110078   -0.079388
H      -0.412886    2.026442   -1.381012
H      -0.944391    2.159207    0.300253
H      -0.025286   -0.114765    0.794786
H      -1.228669   -0.192157   -0.487601
H       0.597496   -0.146264   -2.192080
H       2.644268    0.635787   -1.227905
H       2.402343   -0.265439    0.254891
H       3.754580   -1.243094   -2.182586
H       3.576668   -2.064077   -0.646329
H       1.778567   -2.224106   -3.094552
H       2.157764   -3.511831   -1.947388
H       1.355753   -2.571528    0.703954
H      -0.411037   -2.478436    0.573357
H       0.465753   -3.861314   -0.105101
H      -0.699800   -3.247923   -2.099020
