13

O       0.123991   -0.038226    0.541238
C       0.010726    1.106155    0.187541
C       1.140097    1.928353   -0.194506
C       2.081739    2.621855   -0.477659
C      -1.366339    1.843200    0.128189
C      -1.626968    2.276622   -1.246678
C      -1.821829    2.616945   -2.381216
C      -2.445223    1.027173    0.676647
C      -3.334994    0.369181    1.139309
H       2.920294    3.223623   -0.733148
H      -1.240143    2.741985    0.751981
H      -2.003374    2.919075   -3.383207
H      -4.120213   -0.220172    1.544543
