15

C      -0.068248    1.442752   -0.287387
C      -0.103535   -0.027566   -0.060885
C      -1.102897   -0.960149   -0.018198
C      -2.590669   -0.789029   -0.179537
C      -2.968442    0.033985   -1.331773
N      -3.258755    0.699378   -2.230596
C      -0.409779   -2.170139    0.258487
N       0.880923   -1.993349    0.373361
O       1.075946   -0.630681    0.168320
H       0.842045    1.717707   -0.826013
H      -0.933469    1.765683   -0.869466
H      -0.070056    1.986890    0.664104
H      -3.061446   -1.771153   -0.295641
H      -3.042344   -0.340906    0.714982
H      -0.818405   -3.165204    0.373131
