21

C       0.001342    1.567674    0.005849
C      -0.012710    0.041188   -0.024737
C       0.759758   -0.589822   -1.227292
C       2.013448   -0.684839   -0.310202
C       1.050027   -0.609900    0.910144
O       0.705078   -1.882421    1.439277
C      -0.052136   -2.743227    0.622407
O       0.495446   -2.984731   -0.644751
C       0.244395   -1.978116   -1.622558
H       1.011744    1.970187   -0.122242
H      -0.621752    1.979917   -0.795090
H      -0.386472    1.942989    0.958995
H      -1.041004   -0.306041    0.117147
H       0.833506    0.034243   -2.124022
H       2.622533   -1.586331   -0.380406
H       2.651696    0.198740   -0.381120
H       1.377961   -0.022923    1.771888
H      -0.056773   -3.699554    1.150842
H      -1.087867   -2.377779    0.518143
H      -0.834299   -1.931136   -1.845462
H       0.758347   -2.330419   -2.522048
