18

C      -0.056422    1.512447    0.059872
C       0.018863    0.017747   -0.041359
C       0.009885   -0.677426   -1.187356
C       0.075326   -2.136191   -1.111855
C       0.844477   -2.847610   -0.043310
C       0.882613   -2.094945    1.286053
C      -0.613225   -2.152831    1.261639
C       0.075258   -0.790707    1.183079
N      -0.645054   -2.927580   -0.023279
H       0.816755    1.921920    0.583459
H      -0.105037    1.974339   -0.930051
H      -0.940417    1.831177    0.626797
H      -0.059049   -0.203321   -2.160345
H      -0.000705   -2.679209   -2.048810
H       1.454320   -3.720145   -0.253491
H       1.589822   -2.270241    2.084922
H      -1.354147   -2.382371    2.015493
H       0.042594   -0.257722    2.129397
