20

O       0.086118    1.392838   -0.129221
C       0.032276   -0.015850    0.006144
C       0.619609   -0.492516    1.364678
C      -0.579373   -0.528729    2.295841
N      -1.428632    0.683577    2.178780
C      -1.813259   -0.568590    1.471533
C      -1.413146   -0.544261    0.025791
C      -2.363780   -0.231331   -1.091924
C      -1.861331   -1.642821   -0.906992
H      -0.441887    1.734461    0.608913
H       0.595793   -0.417690   -0.840618
H       1.036626   -1.502684    1.276107
H       1.414354    0.181892    1.694452
H      -0.515975   -1.022531    3.260030
H      -1.991374    0.791114    3.018468
H      -2.711378   -1.090620    1.786649
H      -3.398762   -0.020566   -0.843066
H      -1.976518    0.352482   -1.919599
H      -1.139358   -2.030470   -1.618521
H      -2.553149   -2.388999   -0.527894
