14

O       0.032796    0.011227    0.465255
C       0.041543    1.147017    0.081769
O      -1.161488    1.766741   -0.174034
C      -1.164690    3.013059   -0.874241
C      -0.112114    3.992413   -0.337468
C       1.209186    3.291599   -0.213001
C       1.262599    1.966628   -0.065354
C      -0.989824    2.786134   -2.324100
N      -0.866001    2.634187   -3.462249
H      -2.170741    3.414952   -0.724871
H      -0.044700    4.856696   -1.004840
H      -0.437971    4.370016    0.640461
H       2.115862    3.888821   -0.229107
H       2.191457    1.419672    0.038158
