16

O       0.327182    0.926074   -0.866019
C       0.070863   -0.165690   -0.015510
C       0.069927    0.059994    1.521441
C      -1.248097   -0.759969    1.581026
O      -2.324362   -0.268717    2.343487
C      -1.435979   -0.555454    0.048197
C      -2.357732    0.602026   -0.282575
O      -3.266404    0.513861   -1.066816
H       1.269388    1.121048   -0.842716
H       0.678346   -1.037670   -0.292033
H       0.928273   -0.288978    2.100689
H      -0.129020    1.111238    1.748388
H      -1.052273   -1.817441    1.802972
H      -2.133490   -0.412878    3.275735
H      -1.753686   -1.419625   -0.535999
H      -2.146197    1.552447    0.246471
