23

C      -0.002925    1.637659    0.049773
C       0.221511    0.129030   -0.097604
C       0.747121   -0.510390    1.184918
C      -0.289348   -0.737832    2.307465
O      -0.216180   -2.168288    2.153942
C       0.893827   -2.061187    1.226715
C       0.706872   -2.883572   -0.011743
C       1.919712   -3.314181   -0.805621
C       1.142729   -4.328605   -0.010909
H       0.930897    2.153347    0.300021
H      -0.388047    2.074503   -0.876602
H      -0.724511    1.857903    0.844304
H      -0.720023   -0.352502   -0.389749
H       0.930136   -0.060124   -0.913235
H       1.649969    0.015193    1.511030
H       0.024310   -0.415366    3.309306
H      -1.301427   -0.357474    2.116082
H       1.829844   -2.370879    1.718913
H      -0.189558   -2.656270   -0.579495
H       1.841293   -3.329581   -1.886743
H       2.897623   -3.020915   -0.437284
H       1.591804   -4.718355    0.896518
H       0.528878   -5.044209   -0.545842
