17

O       0.082234    1.434467    0.283895
C      -0.003952    0.051693   -0.024211
C      -1.424052   -0.430913    0.037067
C      -2.120598   -1.052987    1.257936
C      -3.631880   -0.851942    1.098107
C      -3.408011   -1.179178   -0.408093
C      -2.031030   -1.856900    0.000574
C      -2.521612   -0.017571   -0.888070
O      -2.564669    0.766817   -1.799062
H      -0.416994    1.901565   -0.396111
H       0.411596   -0.157707   -1.021630
H       0.620565   -0.471653    0.707568
H      -1.551555   -1.177681    2.171228
H      -4.191261   -1.642472    1.605001
H      -4.063252    0.125609    1.339099
H      -4.188059   -1.596166   -1.038631
H      -1.548188   -2.777863   -0.287847
