22

C       0.276079    1.775039   -0.191476
C       0.079653    0.278389   -0.099463
C       0.481035   -0.707751   -1.140358
C       1.453308   -0.308655   -2.241810
C       2.707126    0.177817   -1.502929
C       4.062757    0.135763   -2.155223
C       3.399863    1.463969   -1.885677
C       2.532343   -0.225973   -0.027482
N       1.153127   -0.698101    0.179653
H       1.104593    2.066641   -0.837326
H      -0.635810    2.239274   -0.582820
H       0.455373    2.200380    0.802764
H      -0.817909    0.018305    0.461729
H      -0.168845   -1.556725   -1.339669
H       1.675828   -1.186887   -2.858360
H       1.043516    0.456710   -2.910372
H       4.914650   -0.143539   -1.542289
H       4.126263   -0.204743   -3.184163
H       3.015812    2.023489   -2.733504
H       3.804175    2.083895   -1.090655
H       3.196796   -1.060389    0.225951
H       2.766121    0.595042    0.660402
