11

N       0.015606    1.388883    0.127326
C       0.030483    0.006966    0.025354
N      -1.021996   -0.762000    0.041178
O      -0.538415   -2.051483   -0.006005
N       0.838726   -2.067584   -0.052836
C       1.203791   -0.816288   -0.036364
N       2.508346   -0.360139   -0.137669
H       0.640363    1.838402   -0.531068
H      -0.918473    1.772298    0.056807
H       3.186761   -1.107893   -0.066406
H       2.717969    0.380779    0.520319
