21

C       0.025999    1.497033   -0.007963
C      -0.027952   -0.012035    0.030564
C      -0.889638   -0.722309    1.044721
C       0.612852   -0.854664    1.114178
C       1.364706   -1.985916    0.329478
C       1.850300   -1.151574   -0.889954
C       0.397356   -0.762210   -1.288182
C      -0.227724   -2.147874   -1.330551
C       0.349779   -2.878068   -0.370263
H       0.974606    1.854530   -0.426498
H      -0.781536    1.910497   -0.624616
H      -0.075021    1.923806    0.995220
H      -1.348736   -0.091961    1.801243
H      -1.489700   -1.575452    0.751865
H       1.141959   -0.401140    1.945628
H       2.122944   -2.497389    0.922736
H       2.464494   -0.291582   -0.603182
H       2.367064   -1.744923   -1.650187
H       0.269725   -0.152175   -2.183502
H      -1.054912   -2.434265   -1.967967
H       0.089733   -3.882486   -0.060464
