19

C      -0.349171    1.542073    0.186512
C      -0.075720    0.062177    0.035316
C      -0.800074   -0.948003    0.856092
N       0.596776   -0.597746    1.156476
C       1.629275   -1.562260    0.768839
C       1.334627   -2.380209   -0.472446
N       1.675491   -3.595054   -0.562284
O       0.653330   -1.746712   -1.473444
C       0.410363   -0.345043   -1.343893
H       0.530567    2.135883   -0.087067
H      -1.182400    1.857205   -0.451474
H      -0.599398    1.772405    1.224381
H      -1.520151   -0.618165    1.599533
H      -1.013989   -1.918155    0.415615
H       2.558222   -0.998572    0.612484
H       1.811535   -2.260236    1.587874
H       1.410513   -3.969829   -1.476321
H      -0.331445   -0.105367   -2.111078
H       1.327996    0.212797   -1.584860
