23

C      -0.836415   -0.127407   -4.142607
C      -0.597615   -1.150704   -3.134250
C      -0.392694   -1.997262   -2.302644
C      -0.171240   -3.019434   -1.281086
C      -1.472102   -3.524946   -0.666736
C      -2.292835   -4.636085   -1.287116
C      -1.900086   -5.334247   -2.572528
C      -1.579829   -4.865084    0.033579
C      -0.413420   -5.818918    0.192451
H      -0.430369   -0.422754   -5.116680
H      -1.908021    0.059268   -4.275830
H      -0.368661    0.824199   -3.865780
H       0.403405   -3.844935   -1.714254
H       0.463572   -2.605629   -0.485253
H      -2.048253   -2.718192   -0.221478
H      -3.368189   -4.497997   -1.201530
H      -0.824190   -5.506050   -2.653931
H      -2.390468   -6.311210   -2.648358
H      -2.200416   -4.740796   -3.442585
H      -2.230682   -4.859509    0.905206
H       0.241307   -5.845022   -0.681743
H       0.204138   -5.541242    1.054207
H      -0.769709   -6.841475    0.360312
