21

C      -0.398127    1.275432   -0.231671
O       0.110722   -0.015425    0.002539
C       0.683191   -0.596663   -1.146130
C       1.198656   -1.986162   -0.757108
C       1.813510   -2.685401   -1.878581
C       2.324114   -3.234786   -2.821048
C       2.921407   -3.929239   -3.954564
C       2.060759   -5.096244   -4.450765
O       2.745683   -5.679220   -5.546505
H       0.388827    1.971552   -0.562984
H      -1.192481    1.269886   -0.995028
H      -0.816609    1.638556    0.710153
H      -0.059674   -0.682488   -1.955949
H       1.512729    0.020461   -1.528035
H       1.915596   -1.872449    0.065133
H       0.359148   -2.567034   -0.355991
H       3.077494   -3.236563   -4.790758
H       3.911716   -4.319205   -3.688993
H       1.914298   -5.815745   -3.631438
H       1.069006   -4.719831   -4.742982
H       2.224549   -6.419922   -5.868925
