22

C      -0.035481    1.556578    0.400271
C      -0.111642    0.041548    0.126921
C       0.432477   -0.747154    1.327397
C      -1.578671   -0.345706   -0.130968
N       0.623401   -0.437459   -1.069460
C       0.972634    0.412507   -2.183422
C       2.048029   -0.216205   -1.338927
C       2.930091    0.597647   -0.542117
C       3.740027    1.213087    0.101888
H       0.991722    1.901890    0.529707
H      -0.499258    2.133412   -0.406376
H      -0.585821    1.786527    1.318245
H      -0.170616   -0.549485    2.218888
H       0.401191   -1.820742    1.119890
H       1.466686   -0.468072    1.546064
H      -1.963142    0.162018   -1.021805
H      -1.668786   -1.423334   -0.290115
H      -2.208198   -0.060697    0.718259
H       0.769489    0.018759   -3.177122
H       0.864457    1.490418   -2.087644
H       2.538858   -1.107248   -1.728019
H       4.439510    1.770027    0.675012
