13

N       0.018836    1.161851   -0.657086
C      -0.003046    0.004982   -0.126426
C       1.192459   -0.683724    0.418156
N       1.526833   -1.908111    0.273200
C       0.729724   -2.866394   -0.316853
N      -0.552378   -3.000492   -0.351070
N      -1.390167   -2.043612    0.134404
C      -1.355437   -0.649066    0.070553
O      -2.367643   -0.012427    0.229045
H       0.973573    1.535073   -0.672705
H       1.889274   -0.038173    0.959880
H       1.277090   -3.710738   -0.724181
H      -2.345030   -2.379034    0.181098
