20

C       0.044786    1.587654   -0.256209
C      -0.013536    0.069675   -0.000195
C      -1.410057   -0.478937    0.051181
C      -2.150680   -0.842588    1.164319
C      -1.807155   -0.832860    2.618242
N      -3.382164   -1.253745    0.726047
C      -3.462529   -1.173125   -0.651030
C      -2.253078   -0.693206   -1.084288
O      -1.940254   -0.456231   -2.396150
H       1.079196    1.942418   -0.317432
H      -0.460482    1.847434   -1.192291
H      -0.458998    2.133879    0.546985
H       0.563051   -0.445911   -0.784032
H       0.512108   -0.160732    0.933080
H      -2.402370   -0.103036    3.182353
H      -1.967067   -1.813293    3.084499
H      -0.756052   -0.572313    2.760700
H      -4.121258   -1.579521    1.322653
H      -4.347475   -1.457827   -1.193476
H      -0.992319   -0.306732   -2.457192
