19

O       0.278970    1.299098    0.136426
C       0.061713   -0.086727   -0.063663
C      -1.427286   -0.456328   -0.066253
C      -1.679702   -1.979129   -0.236428
C      -2.416072   -2.404185    1.054654
N      -3.116971   -1.211622    1.553920
C      -2.217113   -0.090775    1.250270
C      -1.312815    0.140959    2.392206
N      -0.570052    0.347042    3.254479
H       0.337243    1.452864    1.085342
H       0.484128   -0.338343   -1.042918
H       0.596271   -0.689132    0.684399
H      -1.899199    0.102790   -0.878893
H      -2.303115   -2.168601   -1.114970
H      -0.746211   -2.533613   -0.377469
H      -3.122357   -3.224423    0.909309
H      -1.695912   -2.722519    1.817573
H      -3.974762   -1.077012    1.028043
H      -2.795412    0.827588    1.121587
