19

C      -0.684438    1.348342    0.025764
C       0.171553    0.085050   -0.003348
C       1.196876    0.049494   -1.161047
N       2.267769   -0.782906   -0.647437
C       3.359792   -1.245458   -1.469257
C       2.268742   -0.907397    0.719620
O       3.104786   -1.495424    1.374564
C       1.047380   -0.148114    1.239664
H      -0.062783    2.241139    0.157999
H      -1.249673    1.468307   -0.904961
H      -1.404159    1.317560    0.849745
H      -0.484383   -0.785654   -0.122442
H       0.774266   -0.375015   -2.079635
H       1.561310    1.060863   -1.406758
H       3.907241   -0.406819   -1.920441
H       4.038247   -1.810352   -0.827549
H       2.998790   -1.892758   -2.277552
H       1.398985    0.799297    1.668884
H       0.557282   -0.704998    2.040426
