18

C      -0.014565    1.566662    0.008664
C      -0.012831    0.040018    0.006471
O       0.713332   -0.496546    1.107785
C      -1.436654   -0.538618   -0.008412
O      -2.104983   -0.008210   -1.122637
C      -1.529302   -2.090999    0.204948
N      -2.249202   -1.807967    1.453821
C      -2.152662   -0.443171    1.385459
O      -2.466589    0.443854    2.138419
H       1.014293    1.935616    0.039193
H      -0.506843    1.953213   -0.885539
H      -0.557195    1.944901    0.881895
H       0.502486   -0.328533   -0.888955
H       0.461912    0.005151    1.892123
H      -3.046451   -0.194461   -1.045301
H      -2.126886   -2.611599   -0.549147
H      -0.566113   -2.585600    0.349820
H      -2.453659   -2.401238    2.244886
