19

C       0.027821    1.517716   -0.167635
C      -0.022638    0.023030    0.199243
C      -1.372715   -0.528575    0.165172
C      -2.499264   -0.954538    0.138964
C      -3.840687   -1.463278    0.116176
C      -4.433563   -1.955805   -1.216586
C      -4.070947   -2.955763   -0.182854
C      -4.835843   -0.857336    1.050518
O      -4.619387    0.030727    1.830756
H       1.056914    1.886523   -0.122161
H      -0.354119    1.682850   -1.178730
H      -0.581963    2.105745    0.523107
H       0.619006   -0.545925   -0.486110
H       0.403201   -0.123235    1.200258
H      -5.483696   -1.747585   -1.393058
H      -3.791233   -1.836180   -2.079720
H      -3.172011   -3.544503   -0.313935
H      -4.866810   -3.448513    0.365888
H      -5.848363   -1.319745    0.959963
