18

O      -0.077237    1.342340   -0.122516
C       0.012555   -0.033438   -0.012637
C       1.107174   -0.850003   -0.714882
C      -0.308895   -0.903868   -1.206345
N      -0.568488   -2.220692   -0.572498
C      -1.425141   -1.842405    0.582949
C      -0.452723   -0.840648    1.246874
C       0.736144   -1.797113    1.486275
C       0.877668   -2.180693    0.004673
H       0.648417    1.738637    0.371812
H       1.998532   -0.448113   -1.179692
H      -0.773374   -0.578662   -2.129665
H      -2.350351   -1.388922    0.216627
H      -1.666544   -2.707060    1.208817
H      -0.804380   -0.236584    2.082232
H       1.640299   -1.297402    1.848586
H       0.493834   -2.630170    2.153189
H       1.472391   -3.053731   -0.257952
