21

C      -0.034645    1.566708    0.011417
C       0.023201    0.030323    0.001632
C       0.654890   -0.517489   -1.290977
C       0.978009   -2.011983   -1.174240
C       1.982839   -2.269939   -0.043588
C       1.617779   -1.509787    1.206712
C       2.252226   -1.902078    2.477215
O       3.053584   -2.802214    2.595876
C       0.736127   -0.497987    1.216681
H       0.972397    1.996223   -0.021265
H      -0.587821    1.937759   -0.857091
H      -0.531086    1.941649    0.912474
H      -1.016273   -0.333320    0.057958
H      -0.015615   -0.328211   -2.136378
H       1.580583    0.038069   -1.495000
H       0.052629   -2.567228   -0.972547
H       1.371470   -2.393784   -2.121923
H       2.053708   -3.336002    0.195614
H       2.994847   -1.978443   -0.356885
H       1.935050   -1.294814    3.356026
H       0.510979   -0.011844    2.166782
