21

C      -0.005721    1.406144    0.008723
O      -0.029088   -0.000816   -0.040157
C       0.640799   -0.580595    1.064109
C       0.598209   -2.033742    0.974117
C       0.583672   -3.236183    0.913864
C       0.543073   -4.695574    0.854794
C       1.309975   -5.334597    2.028914
C      -0.915432   -5.180901    0.801509
O      -0.891822   -6.585743    0.605352
H       1.022946    1.800951   -0.012443
H      -0.541481    1.769374   -0.871085
H      -0.501527    1.794329    0.913225
H       1.690536   -0.238529    1.096762
H       0.176058   -0.247954    2.009340
H       1.014730   -5.024086   -0.081482
H       0.883234   -5.015172    2.985104
H       1.242758   -6.422214    1.962247
H       2.362079   -5.039341    2.011664
H      -1.420449   -4.910216    1.741883
H      -1.437494   -4.667817   -0.018777
H      -1.798284   -6.905404    0.601818
