16

C      -0.036043    1.424953   -0.055129
C       0.005110   -0.073398    0.052207
N      -1.199293   -0.803107   -0.341299
C      -1.056736   -1.968107    0.144206
N       0.182879   -2.216124    0.867007
C       0.668521   -0.813204    1.146871
C       1.385363   -0.783737   -0.206108
C       1.199824   -2.242009   -0.247131
N       1.743574   -3.196233   -0.851972
H       0.889667    1.874208    0.316047
H      -0.176778    1.732111   -1.095155
H      -0.871643    1.820521    0.529939
H      -1.748816   -2.788383   -0.008063
H       0.995997   -0.510636    2.133182
H       2.238513   -0.210402   -0.541624
H       1.371923   -4.092871   -0.533801
