15

O      -0.019590    1.251388   -0.122611
C      -0.072591   -0.135938   -0.037817
C      -0.489008   -0.699258    1.334223
C      -1.441217   -0.682647    0.090174
C      -1.387508   -2.195896    0.056397
C      -2.430550   -3.172339   -0.268157
O      -1.273618   -3.009368   -1.094433
C      -0.468993   -2.198142    1.290617
O      -0.037770   -3.063409    1.998319
H       0.848279    1.540499    0.178692
H       0.673313   -0.665724   -0.629693
H      -0.483901   -0.053176    2.201524
H      -2.317417   -0.063961   -0.048069
H      -2.475874   -4.102181    0.295740
H      -3.368291   -2.825832   -0.699768
