23

C      -0.236445    1.243721   -0.414970
C       1.146086    1.352829    0.177469
C       0.492157   -0.002087    0.033603
C       0.024437   -0.726217    1.258475
C      -0.711207   -2.050143    1.286647
C      -0.651922   -2.986126    0.085993
C       0.852818   -3.216293   -0.218711
C       1.628111   -2.806826    1.062438
C       0.680268   -1.940751    1.882590
H      -1.074038    1.580824    0.187212
H      -0.358919    1.417477   -1.478519
H       1.972482    1.601460   -0.479479
H       1.237935    1.763288    1.177924
H       0.883898   -0.617198   -0.767226
H      -0.351055   -0.029413    2.007260
H      -1.587459   -2.116956    1.923701
H      -1.135281   -3.931293    0.358287
H      -1.189103   -2.599691   -0.787381
H       1.052862   -4.255471   -0.495002
H       1.170638   -2.611728   -1.071884
H       1.886352   -3.693685    1.652280
H       2.571796   -2.303906    0.823249
H       0.827346   -1.927145    2.957904
