18

C       0.012805    1.493933    0.210767
C       0.040809   -0.007412   -0.063319
N      -1.306429   -0.577593   -0.007739
C      -1.451161   -2.029958   -0.122328
C      -2.540914   -2.090911    0.871679
C      -1.153272   -2.700613    1.240847
C      -1.003715   -1.566139    2.202655
O      -0.560505   -1.452754    3.311131
C      -1.961335   -0.700979    1.329036
H       1.013066    1.922304    0.100503
H      -0.663225    2.000506   -0.484002
H      -0.324887    1.703542    1.231043
H       0.422841   -0.196778   -1.073790
H       0.733818   -0.503050    0.638737
H      -1.315254   -2.572919   -1.050433
H      -3.519324   -2.540583    0.917527
H      -0.890245   -3.742861    1.353439
H      -2.495920    0.155141    1.732943
