21

C       0.154053    1.399246   -0.076520
O       0.208398   -0.006554   -0.086405
C       0.527830   -0.550234    1.181631
C       0.530527   -2.038975    1.089510
C       1.690690   -2.852619    0.537170
C       1.204031   -3.112338    1.930203
C       2.012116   -3.118693    3.186660
O       0.047709   -3.962655    1.884957
C      -0.690006   -2.948870    1.149411
H       1.121615    1.845095    0.206276
H      -0.101193    1.724696   -1.087901
H      -0.610573    1.776522    0.621809
H       1.516026   -0.187812    1.515634
H      -0.207976   -0.211000    1.932357
H       1.523210   -3.593374   -0.240169
H       2.622843   -2.301213    0.455044
H       2.814376   -2.377183    3.134010
H       1.387679   -2.902831    4.059087
H       2.472554   -4.102266    3.334402
H      -1.505018   -2.545071    1.762762
H      -1.092315   -3.328694    0.203324
