18

C      -0.012563    1.538556   -0.010306
C      -0.022913    0.002174    0.027544
C       0.760860   -0.526550    1.239158
C      -1.455124   -0.540235    0.017617
N       0.671489   -0.480839   -1.200877
N       0.132748   -1.243591   -2.138312
N       1.073677   -1.424417   -3.017662
N       2.177975   -0.772857   -2.614022
N       1.930257   -0.183919   -1.482555
H       1.009637    1.921414   -0.044439
H      -0.554868    1.910560   -0.884030
H      -0.500713    1.924965    0.888395
H       0.285248   -0.173930    2.158239
H       0.767444   -1.620011    1.252186
H       1.793337   -0.171174    1.221728
H      -2.010338   -0.190835   -0.855314
H      -1.470401   -1.632101    0.015898
H      -1.962773   -0.185779    0.918681
