22

C       0.091937    1.059786   -2.033234
C      -0.020363   -0.145721   -1.123490
C       1.110239   -0.615049   -0.230515
C       2.454422    0.072928   -0.157710
C      -0.136428   -0.010063    0.380938
N      -0.087239    1.299989    0.958706
C       0.398589    1.516701    2.222782
C       0.183590    2.926853    2.755779
O       0.947817    0.646877    2.871192
H       0.682117    1.864227   -1.588528
H       0.569218    0.787171   -2.980508
H      -0.898432    1.465404   -2.272620
H      -0.633810   -0.939102   -1.543009
H       1.171607   -1.693038   -0.106583
H       2.369131    1.158816   -0.237368
H       2.934927   -0.146241    0.799975
H       3.113565   -0.271317   -0.962060
H      -0.803521   -0.697399    0.896521
H      -0.640321    2.026404    0.532126
H       0.079043    3.674389    1.964241
H      -0.723169    2.947006    3.369746
H       1.025677    3.190027    3.397270
