14

O      -0.629895    0.675455    0.715124
C       0.008369    1.043346   -0.238324
C       1.236780    1.879787   -0.116812
C       1.503745    2.856020    1.045409
C       2.277674    3.634109   -0.010865
C       3.037121    2.688405   -0.897367
N       1.559186    3.019640   -1.155429
C       2.641036    1.316857   -0.478466
O       3.093840    0.218476   -0.590286
H      -0.265915    0.768904   -1.278292
H       0.593129    3.383223    1.337601
H       2.019361    2.476836    1.930537
H       2.526800    4.689702   -0.018952
H       3.827047    3.002622   -1.567157
