22

C      -0.071609    1.579221   -0.261464
C      -0.021339    0.132777    0.244840
C      -1.372646   -0.550637    0.180792
C      -1.838742   -1.240262   -1.081672
C      -1.538905   -2.054999    0.156518
C      -0.383005   -3.005375    0.202482
C      -0.082688   -3.776801    1.465474
C      -0.633927   -4.493239    0.257101
H       0.911331    2.057272   -0.201706
H      -0.404762    1.618961   -1.303842
H      -0.770682    2.180040    0.330970
H       0.710811   -0.430830   -0.344642
H       0.347630    0.119862    1.278983
H      -2.147279   -0.018473    0.730119
H      -2.868714   -1.126833   -1.402510
H      -1.127039   -1.308451   -1.899909
H      -2.410366   -2.425144    0.693411
H       0.482376   -2.702645   -0.379495
H       0.953781   -3.943748    1.737737
H      -0.744742   -3.631115    2.312959
H      -1.665480   -4.828706    0.293281
H       0.025062   -5.150705   -0.299446
