19

N      -0.100897    1.373656    0.170289
C       0.052706   -0.001440    0.003268
O       1.144024   -0.529435   -0.105981
N      -1.138985   -0.693982   -0.011338
C      -1.144170   -2.150655    0.046707
C      -1.214783   -2.682822    1.508710
C      -2.687661   -2.951828    1.706720
C      -3.349297   -2.962812    0.549296
C      -2.431857   -2.701089   -0.623082
H       0.743797    1.876463   -0.058226
H      -0.934987    1.793139   -0.214004
H      -1.943477   -0.234939    0.390659
H      -0.231408   -2.468762   -0.454699
H      -0.631985   -3.607473    1.620897
H      -0.792404   -1.962606    2.217113
H      -3.124041   -3.147477    2.680032
H      -4.406573   -3.172628    0.431245
H      -2.833800   -1.991670   -1.354409
H      -2.225804   -3.630792   -1.170711
