20

C      -0.061359    1.457329    0.206191
C      -0.018257   -0.051885   -0.058653
C      -1.425777   -0.630787   -0.243203
N       0.756714   -0.296602   -1.269784
C       1.785432   -1.007052   -1.175387
O       2.528050   -1.295006   -2.271968
C       3.747605   -1.983261   -2.070224
C       3.971405   -2.931772   -3.239306
O       5.016117   -3.488292   -3.441482
H       0.946378    1.856564    0.354096
H      -0.509996    1.978525   -0.644985
H      -0.653492    1.674938    1.100799
H       0.448375   -0.545143    0.813770
H      -1.914319   -0.170978   -1.107685
H      -1.384393   -1.710742   -0.413050
H      -2.038336   -0.444183    0.644566
H       2.166181   -1.458275   -0.245091
H       4.591172   -1.284698   -2.003642
H       3.730082   -2.577373   -1.144297
H       3.075210   -3.069580   -3.882273
