16

C      -0.021058    1.480829    0.009352
C      -0.009907    0.026573   -0.033242
C      -0.001450   -1.176459   -0.068454
C      -0.016343   -2.635601   -0.108641
N      -1.364385   -3.216744    0.011750
C      -2.108667   -3.397080   -1.163159
O      -3.227933   -3.817009   -1.239553
C      -1.858291   -3.467587    1.300169
O      -2.941735   -3.897626    1.576119
H       0.575569    1.857508    0.846864
H       0.387563    1.907635   -0.912677
H      -1.041434    1.860107    0.129193
H       0.424697   -2.998832   -1.043075
H       0.601438   -3.048540    0.696000
H      -1.509128   -3.099745   -2.046822
H      -1.091650   -3.217289    2.060648
