22

C       0.009029    1.636563   -0.158519
C      -0.018212    0.132798    0.029371
C      -1.315427   -0.526589   -0.414584
O      -1.591356   -0.316552   -1.791796
C       1.246528   -0.656024   -0.073056
N       0.567081   -0.500684    1.215497
C       1.215487    0.316665    2.241386
C       1.791113   -0.603308    3.317116
O       2.724107   -1.528786    2.787083
H       0.997958    2.066091    0.012571
H      -0.300034    1.873465   -1.180086
H      -0.700150    2.125547    0.520081
H      -1.278731   -1.594463   -0.157476
H      -2.161362   -0.086117    0.125696
H      -0.878026   -0.723552   -2.294877
H       1.249542   -1.660863   -0.492937
H       2.172469   -0.103535   -0.223820
H       2.019853    0.949313    1.836269
H       0.466421    0.975656    2.697483
H       2.330020   -0.009369    4.063039
H       0.965034   -1.120623    3.827952
H       2.230677   -2.088871    2.178281
