14

N       0.027514    1.310167    0.322832
C      -0.010762   -0.019081    0.037873
N      -1.145234   -0.612002   -0.123272
O      -1.116146   -2.014948   -0.344139
C       0.028706   -2.743906   -0.387899
N       0.053473   -3.997313   -0.560650
N       1.213689   -2.039218   -0.240992
C       1.315547   -0.686757   -0.045556
N       2.372590    0.020429    0.054684
H       0.925237    1.750271    0.187689
H      -0.808191    1.847179    0.160480
H      -0.890060   -4.365887   -0.654866
H       2.045661   -2.608342   -0.304199
H       3.226495   -0.531176   -0.029157
