22

C      -0.163660    1.576579   -0.019553
C       0.046731    0.061721    0.046176
C       0.675561   -0.515059   -1.227020
C       0.880356   -2.032954   -1.171031
C       1.524056   -2.605969   -2.427469
C       1.537834   -4.156694   -2.583985
C       0.703524   -3.927679   -3.868387
O       0.246569   -4.613783   -4.742055
N       0.690398   -2.571318   -3.642785
H       0.785940    2.102704   -0.168300
H      -0.824955    1.848820   -0.849727
H      -0.613811    1.957466    0.902298
H       0.683840   -0.184409    0.905912
H      -0.914679   -0.435422    0.230204
H       0.037627   -0.266168   -2.086664
H       1.640996   -0.022508   -1.410731
H       1.517473   -2.286710   -0.313023
H      -0.083852   -2.532181   -1.008827
H       2.510984   -2.152986   -2.588255
H       2.514782   -4.608514   -2.763421
H       1.015969   -4.706146   -1.797829
H       0.379154   -1.809449   -4.227244
