10

F       0.057966    0.117107    0.250823
C       0.028514    1.423651    0.063176
N      -1.121512    1.972027    0.005872
O      -1.170443    3.333789   -0.189320
N      -0.032621    4.104861   -0.321814
C       1.102992    3.521053   -0.259139
F       2.163172    4.281545   -0.388596
C       1.321673    2.091578   -0.057374
N       2.483980    1.568864   -0.003977
H       2.411072    0.559392    0.142785
