15

O       1.011950    1.505690   -0.415559
C       0.041100    0.598646    0.071164
C      -0.073288   -0.647719   -0.835470
C      -0.261404   -0.294934   -2.239086
N      -0.426646   -0.032786   -3.351744
C       0.362172    0.250282    1.512823
C       0.147258   -1.052870    2.151450
O       1.449335   -0.666763    1.701246
H       1.880002    1.102532   -0.290215
H      -0.906510    1.147792    0.042664
H       0.835533   -1.250976   -0.729430
H      -0.917017   -1.271637   -0.521460
H       0.414927    1.130735    2.153836
H       0.023449   -1.096693    3.232057
H      -0.310897   -1.873461    1.604078
