17

C      -0.109154    1.506141   -0.050623
C      -0.010384   -0.006482   -0.013642
O      -1.348357   -0.527016    0.030068
C      -1.430745   -1.863637    0.066516
N      -0.470525   -2.739122    0.067488
C      -1.112218   -3.981553    0.114215
C      -2.461214   -3.801222    0.139985
O      -3.550278   -4.608674    0.185583
N      -2.674622   -2.435885    0.109469
H       0.893591    1.942113   -0.084570
H      -0.660659    1.839887   -0.934254
H      -0.620625    1.885844    0.838518
H       0.498973   -0.406249   -0.897475
H       0.538797   -0.360539    0.865828
H      -0.555345   -4.904982    0.125478
H      -3.247529   -5.521719    0.202856
H      -3.563418   -1.965612    0.117137
