15

N       1.066236   -0.793803    0.289878
C      -0.001936    0.009628   -0.014555
O       0.091862    1.196829   -0.242365
N      -1.240164   -0.674068   -0.097716
C      -1.361787   -2.134782   -0.062385
C      -1.076059   -2.723366    1.245077
C      -0.804544   -3.209860    2.310307
C      -2.399175    0.068092   -0.307582
O      -3.492896   -0.428316   -0.438867
H       1.913091   -0.275015    0.465136
H       0.926880   -1.617645    0.857696
H      -2.396681   -2.343635   -0.349939
H      -0.702710   -2.572650   -0.820079
H      -0.597911   -3.644962    3.257582
H      -2.188498    1.143942   -0.340241
