17

O       0.006180    1.354968   -0.093855
C       0.026815   -0.056436   -0.025780
C       0.987507   -0.586893   -0.988012
C       1.829395   -0.917798   -1.781154
C       0.023446   -0.652900    1.460190
C      -1.458296   -0.154580    1.521255
C      -1.448122   -0.630954    0.029579
C      -1.143768   -2.117291    0.207901
C      -0.183695   -2.130135    1.140587
H       0.905032    1.653336   -0.266435
H       2.558393   -1.235583   -2.485148
H       0.781409   -0.357428    2.184964
H      -2.122845   -0.695845    2.196711
H      -1.553755    0.925126    1.636531
H      -2.188933   -0.312520   -0.702213
H      -1.584905   -2.931649   -0.348032
H       0.374599   -2.959655    1.549890
