19

C      -0.114999    1.346102   -0.219620
C       1.286302    0.907576    0.019284
N       0.181644   -0.046589    0.115551
C      -0.181153   -0.495776    1.419579
C      -0.212737    0.164862    2.810228
N      -0.705734   -1.239338    3.133369
C      -1.470307   -1.294239    1.784929
C      -0.857066   -2.654015    1.437067
C       0.265840   -1.835548    2.081482
H      -0.578039    1.967780    0.543935
H      -0.475626    1.516785   -1.229606
H       1.965997    0.752665   -0.813346
H       1.759241    1.236389    0.942387
H       0.736854    0.411415    3.297002
H      -0.960417    0.940560    3.007017
H      -2.503962   -0.948212    1.726811
H      -1.221720   -3.508299    2.012542
H      -0.747415   -2.883525    0.376143
H       1.276720   -2.126982    2.372593
