23

C      -0.090285    1.522147   -0.302638
C      -0.049093   -0.003630   -0.191115
C      -1.420890   -0.612574    0.122785
O      -2.357401   -0.291555   -0.912927
C      -3.007851   -1.470246   -1.403217
C      -2.898314   -1.543534   -2.930901
C      -3.549549   -0.347478   -3.629095
C      -2.334087   -2.598333   -0.667977
C      -1.442785   -2.116651    0.189012
H       0.896167    1.927919   -0.546515
H      -0.791248    1.829614   -1.083002
H      -0.416344    1.977986    0.639155
H       0.316898   -0.444484   -1.125939
H       0.649527   -0.305372    0.600362
H      -1.782013   -0.175243    1.071670
H      -4.079631   -1.416974   -1.137700
H      -1.836539   -1.608370   -3.196661
H      -3.369544   -2.477523   -3.264310
H      -3.439385   -0.415329   -4.715593
H      -4.620769   -0.294330   -3.403838
H      -3.090965    0.586656   -3.294509
H      -2.576873   -3.639389   -0.841547
H      -0.808279   -2.683593    0.858974
