17

O      -0.030164    0.088901    0.501395
C      -0.047976    1.224139    0.106057
C      -1.257909    2.049130   -0.319972
C      -0.768005    3.491297   -0.111870
N       0.695248    3.473210   -0.327916
C       1.195218    2.137182   -0.017223
C       2.015436    2.077370    1.293725
C       3.293567    2.770235    1.171749
N       4.307660    3.311252    1.053068
H      -1.445193    1.848122   -1.383150
H      -2.150170    1.762557    0.239595
H      -1.236376    4.212878   -0.783452
H      -0.983220    3.818350    0.913267
H       0.917574    3.729037   -1.280059
H       1.825224    1.747064   -0.824935
H       1.442493    2.531217    2.109350
H       2.187380    1.027684    1.554712
