17

C      -0.615598    1.310459   -0.124185
C       0.013857   -0.070186   -0.035984
O       1.235374   -0.205566   -0.806045
C       2.080101   -0.499706    0.347390
C       2.696761   -1.894368    0.272964
C       3.062329    0.543261    0.594942
C       3.864660    1.408572    0.824550
C       0.801094   -0.395767    1.236642
O       0.559920   -0.533192    2.393216
H       0.099290    2.083651    0.168899
H      -0.939880    1.507102   -1.150024
H      -1.488241    1.365487    0.533940
H      -0.712263   -0.850317   -0.303804
H       3.409636   -1.938467   -0.554482
H       3.222253   -2.120928    1.204341
H       1.918107   -2.643988    0.109205
H       4.575412    2.173310    1.020945
