20

O      -0.345022    0.073921    0.364131
C      -0.097316    1.200841    0.024001
C       1.305481    1.767107   -0.134139
N       1.361256    2.731702   -1.205082
C       1.463175    2.242421   -2.602235
C       2.467255    3.363759   -2.875028
C       3.526676    3.456264   -3.924167
C       2.367383    4.431230   -3.920115
C       2.577691    3.563074   -1.361398
H      -0.897655    1.943322   -0.195497
H       1.533903    2.285441    0.809627
H       2.019464    0.929014   -0.228993
H       1.908764    1.236541   -2.677531
H       0.519391    2.253776   -3.159549
H       4.505565    3.823821   -3.632334
H       3.551606    2.693285   -4.695926
H       1.607619    4.325496   -4.688147
H       2.563103    5.457048   -3.623988
H       2.480715    4.583080   -0.971161
H       3.482606    3.101420   -0.934041
