18

O       0.056466    1.477513    0.105851
C       0.034101    0.076184    0.047457
C       0.650098   -0.412699   -1.246240
O       1.107732    0.353714   -2.059728
C       0.755653   -0.515034    1.254894
C       2.229655   -0.337094    1.688275
N       1.660909   -1.208959    2.823145
C       0.443187   -0.267510    2.746988
C       0.957827   -1.984920    1.695424
H       0.474623    1.764656   -0.721803
H      -1.007020   -0.298392    0.059997
H       0.662195   -1.509653   -1.405483
H       3.006666   -0.838053    1.103706
H       2.549053    0.654254    2.016011
H       0.632511    0.730137    3.148206
H      -0.470874   -0.702766    3.160399
H       0.083826   -2.548772    2.033414
H       1.637755   -2.614360    1.114029
