15

O      -0.581890    0.296625    0.637684
C      -0.187086    1.295938    0.134001
O      -0.937144    2.269446   -0.503587
C       0.251102    3.051997   -0.818100
C       0.530530    4.128292    0.277602
C       1.436957    3.079081    1.025138
C       1.137759    2.022093   -0.082169
C       1.212866    5.318169   -0.185092
C       1.797002    6.286502   -0.593416
H       0.299948    3.321122   -1.870648
H      -0.386003    4.388329    0.814253
H       2.483755    3.381293    1.034407
H       1.130613    2.811977    2.037340
H       1.961052    1.457674   -0.513121
H       2.301841    7.152792   -0.943638
