21

C      -0.277251    1.425387   -0.532476
O      -0.299399    0.339272    0.372624
C      -1.338534   -0.550334    0.121074
C      -1.162522   -1.608846   -0.939986
C      -1.212592   -1.988876    0.531252
C      -0.041971   -2.640700    1.215674
C       0.239924   -4.056408    0.754115
C       1.023481   -1.871340    1.880272
O      -0.021396   -2.480578    2.644122
H       0.560715    2.065088   -0.246842
H      -0.138265    1.085582   -1.568553
H      -1.207174    2.011345   -0.481023
H      -2.328772   -0.103132    0.227102
H      -1.987160   -1.874992   -1.591994
H      -0.182502   -1.638377   -1.406057
H      -2.153139   -2.429703    0.856529
H       0.538479   -4.075062   -0.298836
H       1.036586   -4.501604    1.355261
H      -0.655415   -4.679647    0.858276
H       2.006254   -2.330791    1.992598
H       1.007811   -0.788020    1.845846
