22

N      -0.131464   -1.178022   -0.207613
C      -0.097992   -0.025471   -0.129195
C      -0.030953    1.430758   -0.029419
C       1.419313    1.956153    0.022228
C       1.496048    3.482442    0.091683
C       0.894307    4.111772    1.371267
C       1.632502    5.467209    1.570706
C       2.759084    5.499641    0.504371
C       2.932054    4.035249    0.073717
H      -0.558318    1.861226   -0.889222
H      -0.583191    1.740729    0.864516
H       1.925206    1.520698    0.892483
H       1.954478    1.595440   -0.863277
H       0.968216    3.895607   -0.781187
H      -0.190373    4.236606    1.306772
H       1.084504    3.448586    2.224267
H       0.956032    6.319030    1.460823
H       2.047697    5.529717    2.580686
H       2.444392    6.098435   -0.357996
H       3.683723    5.945829    0.880073
H       3.541588    3.491251    0.808183
H       3.420238    3.924412   -0.899389
