19

C      -0.162742    1.553673   -0.109319
C      -0.300883    0.060264   -0.387444
N      -1.290172   -0.547037    0.512606
C      -1.525620   -1.934347    0.318379
C      -2.753875   -2.449554   -0.069389
N      -3.970226   -1.794883   -0.246114
N      -2.591562   -3.788987   -0.169997
N      -1.325242   -4.197933    0.125158
C      -0.687380   -3.074534    0.423648
H       0.552401    2.012781   -0.798223
H      -1.127165    2.058895   -0.217527
H       0.198219    1.733806    0.910273
H      -0.648341   -0.102569   -1.414057
H       0.687740   -0.424199   -0.314758
H      -1.034430   -0.349860    1.475453
H      -3.812842   -0.796742   -0.146539
H      -4.408671   -1.981570   -1.140853
H      -3.293926   -4.478938   -0.372660
H       0.357426   -3.113756    0.699621
