16

C      -0.052814    1.544584    0.046220
C       0.146923    0.057726   -0.033273
O      -0.555038   -0.755046    0.913589
C       0.875231   -0.778493    0.943325
C       1.519267   -1.971199    0.242062
C       1.107057   -1.838285   -1.222692
O      -0.297397   -1.921012   -1.467600
C       0.291009   -0.622953   -1.393237
H       0.722556    2.073569   -0.518751
H      -1.025184    1.827968   -0.371324
H      -0.016720    1.881664    1.084907
H       1.323823   -0.376477    1.850327
H       2.610419   -1.907322    0.327201
H       1.203342   -2.925908    0.674254
H       1.738711   -2.251547   -2.006335
H       0.261103   -0.029442   -2.303309
