17

O       0.089245    0.539504    1.515600
C       0.050737    1.377839    0.644907
N       1.085767    1.734205   -0.176449
C       2.366710    1.123472   -0.186914
C       3.136935    0.907528    1.077573
C       3.756549    1.756415    0.001275
C       4.324478    0.856911   -1.103337
C       2.905565    0.228471   -1.312538
H      -0.855448    1.978666    0.422081
H       0.877212    2.407131   -0.899510
H       2.751375    1.444971    1.935695
H       3.535554   -0.077446    1.309321
H       4.015190    2.794284    0.174109
H       4.670794    1.406280   -1.981305
H       5.115363    0.169857   -0.787197
H       2.800120   -0.850555   -1.161136
H       2.486223    0.486865   -2.288690
