19

O       0.184474    1.369790    0.056054
C       0.088669   -0.037913    0.024409
C      -1.369155   -0.536836    0.009854
C      -1.492468   -2.090279    0.094708
C      -2.655253   -2.389707    1.079368
C      -2.863991   -1.068591    1.777078
C      -2.173585   -0.077725    1.216261
C      -2.088842   -0.028806   -1.232310
O      -1.675154    0.824971   -1.981932
H      -0.194785    1.672676   -0.779554
H       0.622262   -0.462349   -0.841533
H       0.580350   -0.410053    0.929627
H      -1.643456   -2.552835   -0.885314
H      -0.551164   -2.486746    0.488173
H      -3.566663   -2.707351    0.555680
H      -2.410912   -3.199624    1.776045
H      -3.511808   -0.960765    2.640440
H      -2.159382    0.959152    1.527443
H      -3.080651   -0.501254   -1.411771
