16

C      -0.010322    1.678415   -0.013133
C       0.053400    0.157682   -0.012222
O       1.134285   -0.361624   -0.827600
C       1.801706   -0.924658    0.325060
C       0.658944   -0.514527    1.264096
O       1.086506    0.319084    2.307442
C      -1.264922   -0.437004   -0.467587
O      -2.204900   -0.611034    0.266257
H       0.915641    2.089868    0.393335
H      -0.148254    2.048479   -1.033740
H      -0.849021    2.024177    0.599219
H       1.987006   -1.997741    0.209821
H       2.740771   -0.407666    0.552464
H       0.043508   -1.341626    1.632704
H       0.346055    0.464058    2.905183
H      -1.289515   -0.712141   -1.545794
