18

C      -0.018520    1.574116    0.061742
C       0.042999    0.066059    0.034270
O      -1.127695   -0.558321   -0.436131
C       1.296880   -0.744405   -0.297057
C       2.509995   -0.123194    0.371796
O       1.822225   -0.063334    1.651596
C       0.693171   -0.764964    1.105246
C       0.035159   -1.795783    1.959559
H       0.821881    1.993067    0.618201
H      -0.008432    1.991809   -0.952482
H      -0.944968    1.892196    0.549944
H      -1.181771   -0.408366   -1.386576
H       1.294201   -1.501990   -1.070435
H       3.372975   -0.796562    0.433487
H       2.841966    0.864340    0.029242
H      -0.326644   -1.337437    2.887179
H      -0.818244   -2.225592    1.431937
H       0.735380   -2.593087    2.227290
