10

O      -0.044702   -0.036832    0.004060
C      -0.038260    1.158673    0.009685
N      -1.242892    1.916726    0.030336
C      -1.157397    3.178286    0.035420
O      -0.000932    3.909395    0.022799
C       1.133707    3.152748    0.002838
N       1.194015    1.886446   -0.004191
C       2.318720    3.973728   -0.009508
N       3.268471    4.630574   -0.019398
H      -2.021051    3.836485    0.050878
