19

C      -0.260777    1.587381   -0.112574
C       0.025976    0.092569   -0.059700
C       0.683614   -0.599415   -1.262309
C       2.125859   -0.224067   -1.438334
O       2.633306    1.064667   -1.241182
C       1.789346   -1.191278   -0.350660
C       1.177134   -0.481112    0.873399
C       2.030956    0.427225    1.623272
C       2.745908    1.174331    2.241132
H       0.629740    2.153763   -0.385496
H      -1.035733    1.791401   -0.859818
H      -0.627232    1.947683    0.854710
H      -0.890692   -0.442289    0.206630
H       0.130768   -1.088450   -2.056419
H       2.577947   -0.706562   -2.304570
H       3.012078    1.115389   -0.355516
H       2.205722   -2.191063   -0.311398
H       0.750041   -1.210644    1.567112
H       3.367099    1.829564    2.800564
