20

C       0.019575    1.532002   -0.003486
C       0.318071    0.033250   -0.002400
C       0.792814   -0.488745   -1.340493
O       1.140699    0.242455   -2.245244
C       0.832936   -2.009056   -1.578920
O       1.334731   -2.256114   -2.864184
C       1.668438   -2.725730   -0.521712
C       2.382610   -3.974119   -0.869275
N       3.131002   -2.719908   -0.642057
H       0.898331    2.100839   -0.314672
H      -0.789384    1.770939   -0.699299
H      -0.276148    1.864022    0.995030
H       1.105640   -0.204406    0.726507
H      -0.553099   -0.554268    0.314677
H      -0.208541   -2.369316   -1.494242
H       1.459327   -1.373436   -3.255050
H       1.300429   -2.604256    0.494823
H       2.528799   -4.739319   -0.112517
H       2.292114   -4.331349   -1.889558
H       3.362133   -2.335154   -1.557590
