12

C       0.173735    1.548214   -0.006603
C       0.002518    0.058729    0.119482
O       1.135528   -0.757367   -0.125013
C       0.618994   -0.765172    1.201279
C       1.445261   -0.144013    2.281995
O       2.355986    0.624618    2.105311
H       1.105300    1.873759    0.457843
H       0.194674    1.825070   -1.065767
H      -0.669088    2.069436    0.459260
H      -0.926762   -0.345125   -0.288803
H       0.104687   -1.681510    1.496327
H       1.130471   -0.447145    3.306411
