15

C       0.065607   -1.168341   -0.006317
C       0.059697    0.032131    0.001749
C       0.007398    1.484316    0.012066
O       1.351062    1.995177   -0.000341
C       1.421938    3.334155    0.006998
N       0.437307    4.192869    0.023885
C       1.059641    5.433041    0.024115
C       2.415563    5.298066    0.007279
N       2.644545    3.926567   -0.003822
H       0.072395   -2.230299   -0.013472
H      -0.535113    1.869114   -0.859474
H      -0.514375    1.857318    0.901225
H       0.481492    6.343732    0.036514
H       3.224671    6.008113    0.002073
H       3.529573    3.449774   -0.017206
