21

C      -0.141323    1.542077   -0.006312
C       0.016685    0.021703   -0.004960
C       0.938080   -0.549857   -1.118564
C       1.977575   -1.276020   -0.261143
C       1.262194   -1.981910    0.930719
C       2.500451   -1.712224    1.818789
C       2.306148   -0.411873    0.999581
C       0.767935   -0.517370    1.224131
O       0.290587   -0.153286    2.485765
H       0.835773    2.038032    0.001661
H      -0.682153    1.883871   -0.894701
H      -0.688662    1.879524    0.879307
H      -0.980448   -0.438392   -0.052121
H       0.414557   -1.228853   -1.799180
H       1.386078    0.243813   -1.726497
H       2.798143   -1.798845   -0.753925
H       0.647105   -2.883996    0.880186
H       2.324072   -1.638546    2.892928
H       3.396397   -2.298545    1.596337
H       2.906693    0.499197    1.031124
H      -0.623953   -0.447150    2.558036
