23

C      -0.443927    1.482383    0.010137
C      -0.006786    0.020496    0.082708
C       0.609696   -0.529659   -1.220145
C       1.489680   -1.741443   -0.809110
O       2.812471   -1.656654   -1.325191
C       1.536292   -1.708215    0.746684
C       2.853381   -2.166691    1.369111
C       1.083978   -0.289462    1.131512
O       2.201191    0.585124    1.019425
H       0.401972    2.131592   -0.241380
H      -1.205784    1.629174   -0.762221
H      -0.870582    1.824415    0.960475
H      -0.880539   -0.590861    0.348742
H      -0.147634   -0.780290   -1.969380
H       1.275886    0.224764   -1.652026
H       1.034024   -2.686795   -1.139818
H       2.753222   -1.663810   -2.285204
H       0.734130   -2.373037    1.092682
H       3.669379   -1.507759    1.073665
H       2.781480   -2.162033    2.461905
H       3.101818   -3.182839    1.049000
H       0.683235   -0.262178    2.156634
H       1.926006    1.458715    1.312234
