22

C       1.190839    1.222588   -0.544436
C       0.106322    0.236911   -0.169313
C       0.440925   -1.075438    0.451087
N      -0.251268   -0.045924    1.221329
C       0.413246    0.647148    2.316231
C      -0.122893    0.348331    3.757831
C       1.319539    0.126008    4.226223
C       1.913842   -1.026539    3.478578
C       1.841334    0.317556    2.797062
H       2.087864    1.099188    0.068007
H       1.478622    1.084972   -1.592318
H       0.844213    2.256697   -0.434510
H      -0.763967    0.276246   -0.824856
H      -0.135693   -1.969313    0.223329
H       1.491488   -1.255760    0.669695
H       0.330519    1.721389    2.124587
H      -0.623177    1.208489    4.207414
H      -0.779437   -0.523475    3.835615
H       1.747987    0.500084    5.147293
H       2.911789   -1.326519    3.782414
H       1.281486   -1.850929    3.157573
H       2.743026    0.825906    2.473861
