17

O      -0.781981    1.073279    0.320918
C       0.295713    0.981248   -0.214722
C       1.400177    1.989621   -0.093765
C       1.490065    2.967497   -1.294201
C       0.248710    3.810228   -1.365641
C       1.301672    4.150309   -0.345982
C       1.236341    3.221818    0.878133
C       0.034393    3.316839    1.798788
O       0.103273    3.121989    2.986285
H       0.521433    0.131866   -0.899378
H       2.349515    1.472769    0.073756
H       2.172873    2.855911   -2.126072
H       0.206605    4.485013   -2.214090
H      -0.715560    3.405116   -1.074129
H       1.814918    5.103492   -0.358035
H       2.126579    3.297301    1.505739
H      -0.915092    3.628058    1.318649
