22

C      -0.037594    1.583194   -0.316569
C       0.142659    0.089372   -0.136031
C       1.400809   -0.699831   -0.407372
O       1.457719   -1.785481   -1.265261
C       2.644525    0.020323    0.130217
N       2.065817   -0.042588    1.494173
C       2.049664    1.118386    2.362064
C       0.834674   -0.664582    1.004387
C       0.140818   -1.707242    1.831391
H       0.881341    2.142302   -0.129614
H      -0.353341    1.810925   -1.341793
H      -0.806135    1.976534    0.357787
H      -0.722383   -0.487997   -0.464089
H       1.268017   -1.478052   -2.158019
H       3.558404   -0.577405    0.038864
H       2.838289    1.029199   -0.260995
H       1.596634    2.025396    1.929441
H       1.497774    0.873225    3.275749
H       3.076171    1.363725    2.656817
H      -0.440191   -1.256164    2.644937
H      -0.549663   -2.291228    1.215821
H       0.873121   -2.388375    2.275525
