10

O      -0.030525    0.079448    0.490255
C      -0.023115    1.193525    0.072490
O      -1.181118    1.797560   -0.322664
C      -1.149718    3.083157   -0.801156
C      -0.028187    3.782312   -0.900878
O       1.194065    3.278232   -0.533855
C       1.283242    2.007919   -0.043625
O       2.334251    1.553698    0.280128
H      -2.124373    3.452201   -1.081426
H       0.027825    4.793863   -1.272796
