17

O      -0.749748    0.957584    0.366531
C       0.276005    0.883354   -0.255667
C       1.496369    1.740446    0.023553
O       2.725930    1.167379   -0.506038
C       3.076822    2.439376   -1.170918
C       3.255154    2.555679   -2.692115
C       2.219147    3.674886   -3.061019
C       1.133568    3.498942   -1.996992
C       1.674046    2.893708   -0.945581
H       0.412428    0.200817   -1.122947
H       1.571483    1.970741    1.092668
H       3.875100    2.927497   -0.597995
H       4.275275    2.786186   -3.009569
H       2.951605    1.612436   -3.157006
H       2.678407    4.671809   -3.033897
H       1.814953    3.547521   -4.070109
H       0.090626    3.741767   -2.159391
