18

C       0.019426    1.453596   -0.100666
C      -0.033452   -0.030853   -0.054569
N      -1.072754   -0.802352   -0.090340
C      -0.564429   -2.102599   -0.019894
C       0.786968   -2.024078    0.049769
O       1.143901   -0.700882    0.036053
C      -1.458861   -3.274809   -0.023519
C      -0.943453   -4.655730    0.294735
C      -1.844817   -3.956536    1.276428
H       0.599241    1.800986   -0.962099
H      -0.996597    1.841471   -0.174732
H       0.492577    1.859357    0.799544
H       1.591692   -2.736095    0.100642
H      -2.251019   -3.210600   -0.763196
H      -1.341567   -5.486972   -0.275938
H       0.102345   -4.764794    0.560119
H      -1.399594   -3.574268    2.187924
H      -2.866967   -4.302154    1.382399
