15

O       0.962475   -0.987116    0.591606
C       0.178745   -0.012411   -0.072380
C      -1.297145   -0.365371   -0.027871
N      -1.985101   -0.319314    1.325689
C      -2.070522    1.091091    1.698702
C      -3.079767    0.565753    0.734625
C      -2.436988    0.497727   -0.622988
O      -2.769448    0.799438   -1.730949
H       0.612461   -1.081360    1.484512
H       0.362743    0.993936    0.332728
H       0.506017   -0.002374   -1.116900
H      -1.419574   -1.382935   -0.418072
H      -2.414245    1.251500    2.715855
H      -1.317392    1.797726    1.360562
H      -4.130963    0.462690    0.976797
