17

O      -0.050999    1.438662   -0.097661
C       0.009548    0.035847   -0.001525
C       0.015582   -0.627785    1.396690
C      -1.489246   -0.181608    1.582754
C      -2.199101   -1.290196    2.350856
O      -2.992754   -2.160559    1.518325
C      -1.611503   -2.488434    1.760455
C      -0.648212   -1.896588    0.737952
C      -1.357473   -0.659279    0.095344
H       0.842303    1.785688   -0.013744
H       0.709977   -0.387907   -0.734345
H       0.807187   -0.616559    2.149577
H      -1.715806    0.860860    1.788682
H      -2.519176   -1.192080    3.382817
H      -1.421653   -3.419854    2.283290
H      -0.048712   -2.560035    0.113769
H      -2.149853   -0.682805   -0.650041
