15

C      -0.019547    1.589749    0.094491
C       0.033507    0.071883    0.008196
C       1.072541   -0.592134   -0.974208
C       1.690673   -1.307379    0.237591
O       2.101897   -0.297054    1.168773
C       0.725375   -0.673004    1.165518
C       2.334332   -2.582971    0.283280
N       2.839886   -3.623111    0.277653
H       0.970235    1.993866    0.323833
H      -0.355697    2.021937   -0.853302
H      -0.713883    1.916329    0.875796
H      -0.961003   -0.349521   -0.166769
H       0.608982   -1.274759   -1.687993
H       1.760262    0.079546   -1.492017
H       0.313465   -1.045348    2.096605
