19

C       0.366098   -0.391910    1.547272
N      -0.057299   -0.161971    0.169543
C       0.971066   -0.558156   -0.791179
C      -1.386206   -0.698934   -0.102826
C      -1.953525   -0.162366   -1.430831
C      -1.842163    1.351000   -1.465151
O      -1.410248    1.974544   -2.397468
C      -1.443538   -2.182942   -0.072360
N      -1.428957   -3.338648   -0.040121
H       1.296250    0.152615    1.730126
H      -0.392880   -0.009271    2.236852
H       0.538776   -1.456809    1.777795
H       1.151794   -1.645822   -0.807887
H       0.703621   -0.228696   -1.797545
H       1.905578   -0.060190   -0.520815
H      -2.037429   -0.345099    0.706659
H      -1.446662   -0.582629   -2.301080
H      -3.013396   -0.439533   -1.497909
H      -2.219161    1.861604   -0.550073
