19

C      -0.959691    1.688088    0.986355
N      -0.859166    0.311029    0.562128
C       0.171663   -0.408803    0.743120
N      -0.001526   -1.731585    0.244364
C       0.777940   -2.844798    0.235018
O       1.912853   -2.969955    0.661732
C       1.495280   -0.037667    1.415136
C       1.572493   -0.595959    2.845255
O       2.613463   -0.369568    0.628432
H      -0.014884    2.183805    1.242181
H      -1.442469    2.263574    0.189554
H      -1.619212    1.749001    1.861147
H      -0.921378   -1.829324   -0.167778
H       0.240704   -3.691868   -0.226930
H       1.504612    1.052909    1.477825
H       1.582959   -1.688640    2.842408
H       2.499376   -0.246691    3.308456
H       0.726988   -0.252009    3.450024
H       2.685563   -1.340766    0.646267
