21

O      -0.146368    1.508065    0.084696
C       0.018753    0.098790    0.032861
C      -1.367875   -0.528890   -0.040079
C      -1.356896   -2.064972   -0.065475
C      -2.766791   -2.699561    0.058526
C      -2.759529   -3.963358   -0.839894
O      -3.987307   -4.211209   -1.512932
C      -1.583453   -3.712619   -1.756061
C      -0.835963   -2.690135   -1.345330
H       0.725430    1.912399    0.116698
H       0.619325   -0.195622   -0.842689
H       0.545712   -0.274273    0.927039
H      -1.939947   -0.183162    0.829402
H      -1.884459   -0.145584   -0.928619
H      -0.730896   -2.408948    0.773165
H      -3.053743   -2.910626    1.091455
H      -3.513407   -2.006076   -0.348670
H      -2.599097   -4.872083   -0.245210
H      -4.139298   -3.470419   -2.110734
H      -1.394741   -4.338619   -2.621512
H       0.071511   -2.348209   -1.832407
