18

C      -0.557760    1.426578    0.417795
N      -0.288594    0.015905    0.173737
C       0.761294   -0.487508    0.664472
C       1.118420   -1.940827    0.435160
C       1.665961   -2.582394    1.700804
O       3.069968   -2.848231    1.724943
C       2.577606   -1.744586    2.490916
C       2.827055   -0.365062    1.910696
O       1.615800    0.248314    1.438363
H       0.292995    2.067650    0.153745
H      -1.423945    1.731018   -0.174657
H      -0.783915    1.614503    1.475745
H       0.228909   -2.444225    0.057844
H       1.894598   -2.009514   -0.336962
H       1.053773   -3.331746    2.197261
H       2.651416   -1.866283    3.568959
H       3.217530    0.329124    2.657136
H       3.553218   -0.445836    1.093311
