18

O       0.078903    1.282527    0.335880
C      -0.032153   -0.118721    0.223556
C      -1.447263   -0.560657   -0.120973
C      -1.665639   -2.096439   -0.124559
N      -2.588165   -2.346613    0.991923
C      -2.875638   -1.214376    1.487378
C      -3.802359   -1.027083    2.650275
O      -4.294725   -2.253502    3.118093
O      -2.333050   -0.097284    0.945713
H      -0.567367    1.560764    0.994788
H       0.646133   -0.429907   -0.578709
H       0.284800   -0.633415    1.146143
H      -1.777931   -0.068046   -1.039248
H      -2.101814   -2.457451   -1.060994
H      -0.728324   -2.643480    0.031892
H      -3.260017   -0.491062    3.444878
H      -4.623652   -0.364777    2.334483
H      -3.906083   -2.933987    2.549409
