14

C      -0.020777    1.496280   -0.002883
C      -0.000332   -0.001073   -0.061697
N      -0.023222   -0.613386   -1.214093
C      -0.000362   -1.975689   -1.120885
O      -0.023178   -2.577286   -2.308659
N       0.041021   -2.728730   -0.053230
C       0.065795   -2.110241    1.171639
O       0.104166   -2.646690    2.252434
N       0.042226   -0.682184    1.102016
H       0.875020    1.873909    0.501395
H      -0.059815    1.893416   -1.016046
H      -0.891956    1.847993    0.559801
H      -0.003456   -3.528742   -2.127387
H       0.059721   -0.203989    1.992039
