16

C       0.109486   -1.193886   -0.219380
C       0.089843    0.007749   -0.180026
C       0.068976    1.444092   -0.168041
O       0.288628    2.103218    1.100531
C       1.284097    2.236169    0.112561
C       2.725362    1.740711    0.217113
C       3.114021    2.873378   -0.783107
C       1.726571    3.545347   -0.544137
H       0.120898   -2.255641   -0.244080
H      -0.712161    1.906034   -0.771471
H       3.130909    1.907604    1.219113
H       2.915162    0.706083   -0.076081
H       3.991910    3.468657   -0.528721
H       3.224428    2.503201   -1.804581
H       1.165982    3.892115   -1.415315
H       1.776150    4.355063    0.190054
