25

C      -0.341637    1.212499    1.029119
C      -0.430038   -0.238276    0.546389
C       0.611581   -0.574446   -0.530816
O       1.922828   -0.223429   -0.077406
C       0.580044   -2.044120   -1.022016
C      -0.823005   -2.483054   -1.486751
C      -0.934536   -3.933659   -1.972466
C       1.649579   -2.236640   -2.107361
O       2.042642   -3.606866   -2.135160
H       0.654986    1.436550    1.416173
H      -0.540317    1.910333    0.207918
H      -1.074203    1.408711    1.817859
H      -0.293383   -0.926155    1.394494
H      -1.434685   -0.429183    0.157027
H       0.444515    0.087230   -1.393080
H       2.129209   -0.793812    0.672327
H       0.882269   -2.678592   -0.173686
H      -1.532452   -2.345854   -0.664419
H      -1.152757   -1.804450   -2.287025
H      -0.291605   -4.129473   -2.832184
H      -0.637906   -4.635165   -1.185836
H      -1.968829   -4.159136   -2.252701
H       1.240425   -1.923183   -3.082832
H       2.507433   -1.593623   -1.879238
H       2.745195   -3.698481   -2.785429
