15

C       0.108718    1.495778    0.023376
C      -0.038857    0.012991    0.008996
C      -1.207303   -0.681372    0.090526
N      -2.461525   -0.057158    0.206327
N      -1.209820   -2.054199    0.138566
C      -0.085902   -2.687197    0.065992
C       1.215237   -2.039717   -0.090180
O       2.285705   -2.576441   -0.199995
O       1.139206   -0.655139   -0.101695
H       1.023042    1.775331    0.554002
H       0.179060    1.910337   -0.990669
H      -0.750074    1.951815    0.522361
H      -2.636929    0.651426   -0.493810
H      -3.194605   -0.754902    0.185582
H      -0.080682   -3.772531    0.118045
