20

C      -0.027932    1.621205   -0.000067
C       0.026327    0.104326    0.209171
C      -1.330791   -0.564941    0.003974
C      -1.962672   -0.660307   -1.427305
C      -2.181368   -2.165433   -1.222259
C      -0.873841   -2.854185   -0.984027
O       0.328235   -2.453665   -1.585745
C      -1.463415   -2.089495    0.153503
H       0.953484    2.080504    0.154673
H      -0.352426    1.870955   -1.016581
H      -0.730367    2.096266    0.694957
H       0.755861   -0.346852   -0.468449
H       0.373296   -0.111863    1.228840
H      -2.063858   -0.090245    0.667156
H      -2.889946   -0.093343   -1.526259
H      -1.300577   -0.399529   -2.259108
H      -3.075520   -2.711515   -1.501036
H      -0.963343   -3.934854   -0.860260
H       0.268419   -2.656670   -2.525526
H      -1.710083   -2.590809    1.083390
