20

C       0.076784    1.578379   -0.010673
C       0.032310    0.050144    0.033594
C       0.717848   -0.625667   -1.183202
C       1.204149   -2.019315   -0.693217
C       2.445971   -2.476201   -1.423612
O       2.529868   -3.478078   -2.088172
C       1.446011   -1.800258    0.798368
N       2.217890   -0.567006    1.080164
C       0.746628   -0.566929    1.226236
H       1.114112    1.926820    0.012950
H      -0.392567    1.962457   -0.922220
H      -0.449274    2.017692    0.843632
H      -1.014711   -0.279507    0.080334
H       0.054307   -0.708575   -2.047003
H       1.580720   -0.025324   -1.487906
H       0.430805   -2.782228   -0.828710
H       3.314067   -1.790452   -1.296258
H       1.565523   -2.657402    1.452814
H       2.650458   -0.647355    1.996471
H       0.320802   -0.473639    2.220762
