22

C      -0.121917    1.360401    0.047638
O      -0.071630   -0.042999   -0.013529
C       0.688390   -0.518893   -1.104671
C       0.690539   -2.041989   -1.055659
C       1.381602   -2.709683   -2.255236
C       2.882538   -2.396829   -2.337783
C       1.146691   -4.220969   -2.208842
O       1.664232   -4.796220   -3.400533
H       0.880694    1.803201    0.164122
H      -0.581774    1.794946   -0.854881
H      -0.728414    1.630468    0.915847
H       0.252497   -0.167563   -2.057223
H       1.713650   -0.116867   -1.053971
H       1.169390   -2.361312   -0.120884
H      -0.354548   -2.370405   -0.999158
H       0.902907   -2.350544   -3.177510
H       3.387532   -2.670186   -1.402755
H       3.341524   -2.966186   -3.148829
H       3.069046   -1.334437   -2.518729
H       1.641596   -4.642102   -1.317390
H       0.067889   -4.422408   -2.111693
H       1.579643   -5.751439   -3.335264
