17

C      -0.267646    1.049568    0.731651
C       0.080964   -0.198846   -0.081516
N      -0.983009   -1.189722   -0.076903
C      -1.723548   -1.476740   -1.174475
O      -1.566007   -0.968790   -2.269242
C      -2.831225   -2.537270   -0.980531
C      -2.983237   -3.096785    0.353614
C      -3.087053   -3.544293    1.465494
H       0.563734    1.761235    0.711430
H      -1.153722    1.543043    0.322262
H      -0.469654    0.800247    1.779090
H       0.251243    0.058247   -1.129083
H       0.999433   -0.657719    0.304648
H      -1.218736   -1.659037    0.784574
H      -3.764270   -2.065847   -1.308914
H      -2.624409   -3.329572   -1.708781
H      -3.195580   -3.951099    2.440606
