14

C       0.505699    1.469469   -0.067557
O       1.092772    0.179758   -0.311002
C       0.386967   -0.635032   -1.093973
O      -0.659504   -0.371485   -1.629459
C       1.036345   -1.986685   -1.244092
O       2.419387   -2.135528   -0.958925
C       1.509922   -2.779298   -0.079125
C       1.425086   -2.289917    1.280839
N       1.346449   -1.963617    2.386196
H       0.379060    2.010658   -1.007887
H      -0.467210    1.357557    0.415935
H       1.203717    1.988521    0.587317
H       0.663023   -2.537973   -2.104240
H       1.472708   -3.864536   -0.159808
