18

C      -0.075932    1.572596   -0.021306
C       0.020420    0.039729   -0.018852
C       0.826615   -0.511140   -1.237560
C       1.504938   -1.779126   -0.705289
C       1.620538   -1.543789    0.803276
O       2.257072   -2.186484    1.605454
N       0.844567   -0.443574    1.091431
C      -1.330346   -0.547009    0.030761
C      -2.435055   -1.018525    0.082556
H       0.928025    2.005527   -0.018609
H      -0.612735    1.915232   -0.910310
H      -0.618596    1.932070    0.857716
H       0.178798   -0.678790   -2.098613
H       1.577537    0.235464   -1.512751
H       0.884648   -2.669778   -0.853769
H       2.484199   -1.982978   -1.141026
H       0.598781   -0.251432    2.051438
H      -3.407678   -1.442872    0.131001
