17

C       0.297766    1.459656    0.030273
C      -0.038793   -0.043375   -0.022347
C      -1.554317   -0.302901   -0.064277
C      -2.194726   -0.035207    1.277263
O      -3.089515    0.743865    1.478836
C       0.658852   -0.727342   -1.199296
O       0.067776   -1.357172   -2.048556
C       2.107067   -0.594636   -1.236135
C       3.307095   -0.500509   -1.255281
H       1.375422    1.622656    0.101492
H      -0.070230    1.969936   -0.865569
H      -0.178867    1.923983    0.897999
H       0.384162   -0.512016    0.880413
H      -2.041475    0.310807   -0.826293
H      -1.726347   -1.355520   -0.321783
H      -1.761881   -0.636345    2.113577
H       4.367224   -0.424856   -1.288402
