13

C      -0.013444    1.485429    0.038084
C       0.009073   -0.003483   -0.020721
C      -0.052871   -0.822738   -1.092122
O       0.004746   -2.132079   -0.635697
C       0.096953   -1.999373    0.703448
N       0.239011   -3.156770    1.427841
N       0.101084   -0.778993    1.141907
H       0.899973    1.870814    0.503866
H      -0.099736    1.918245   -0.961895
H      -0.855972    1.839086    0.642115
H      -0.135924   -0.693370   -2.156416
H      -0.206376   -3.966402    1.021466
H       0.032493   -3.032183    2.407708
