13

O      -0.017509    0.110315   -0.705686
C      -0.067477    1.034835    0.040192
O      -1.131525    1.837119    0.122613
C      -1.290450    2.754351    1.216544
C      -0.358313    3.947328    1.094455
N       1.044592    3.663322    1.314071
C       1.537750    2.514815    1.228820
O       0.989973    1.283717    0.896670
H      -2.332812    3.072969    1.152388
H      -1.142031    2.229536    2.166161
H      -0.479421    4.404651    0.104453
H      -0.660847    4.707927    1.824510
H       2.587266    2.345307    1.457042
