19

C      -0.807862    0.680556    0.007142
C       0.670328    1.064930    0.129238
N       1.398492    0.756987   -1.093127
C       2.131280   -0.265415   -1.139214
N       2.864324   -0.676194   -2.252820
C       3.808347   -1.686949   -1.881793
C       4.761028   -1.385455   -0.730406
C       3.417293   -2.018147   -0.475211
O       2.352187   -1.164781   -0.114042
H      -1.257191    1.157203   -0.869092
H      -0.918522   -0.402859   -0.103429
H      -1.364764    0.993042    0.896956
H       0.742551    2.147474    0.292155
H       1.106606    0.573609    1.009481
H       3.123055    0.060935   -2.890704
H       4.047274   -2.436671   -2.626709
H       5.628234   -2.028472   -0.622515
H       4.907005   -0.351124   -0.437829
H       3.308984   -3.017945   -0.076178
