21

C       0.017298    1.538379   -0.067432
C       0.004249    0.001431    0.054605
C       0.784978   -0.467819    1.298325
C      -1.366141   -0.513338    0.065394
C      -2.502356   -0.914488    0.092136
C      -3.861509   -1.441914    0.111973
C      -3.897475   -2.985683   -0.048140
C      -5.255393   -3.513106   -0.028427
C      -6.387661   -3.916199   -0.008221
H       1.047145    1.906415   -0.117859
H      -0.512186    1.866337   -0.965744
H      -0.469361    1.997085    0.798898
H       0.510666   -0.407449   -0.831243
H       1.819657   -0.112670    1.253972
H       0.326175   -0.075511    2.211244
H       0.796525   -1.558763    1.367458
H      -4.360804   -1.173423    1.050370
H      -4.456989   -0.990414   -0.690238
H      -3.402145   -3.257917   -0.987165
H      -3.305769   -3.440660    0.754431
H      -7.381944   -4.288157    0.007638
