15

C      -0.036928   -1.205673   -0.009101
C      -0.043386   -0.002959    0.000027
C       0.008627    1.414993    0.031929
C      -0.721084    2.453697    0.820653
C       0.574011    3.204218    1.125327
C       1.248727    2.386698   -0.029358
N       1.068753    3.185626   -1.248047
C      -0.179992    3.136568   -1.481650
N      -0.983197    2.277603   -0.656714
H      -0.042654   -2.267573   -0.023301
H      -1.593365    2.353727    1.454192
H       0.600865    4.292296    1.028683
H       0.950567    2.897616    2.103833
H       2.257915    2.007930    0.105679
H      -0.677048    3.696847   -2.266465
