18

C       0.002202    1.517544    0.058492
C       0.035261    0.000619   -0.022740
C       0.685550   -0.506100   -1.305928
O       0.682033   -1.925555   -1.378872
C       0.960273   -2.589158   -0.180971
C       2.248894   -2.414522    0.589985
C       0.944023   -1.855555    1.129593
O       0.789557   -0.464147    1.099642
H       1.012253    1.930222   -0.026382
H      -0.615658    1.934524   -0.742340
H      -0.413714    1.831995    1.019020
H      -0.987790   -0.405350    0.030905
H       0.135005   -0.160622   -2.186145
H       1.712609   -0.112030   -1.365095
H       0.531922   -3.585531   -0.214059
H       2.687891   -3.289386    1.057214
H       2.960150   -1.673770    0.242648
H       0.482700   -2.317560    2.000208
