13

O       0.013081   -0.072757   -0.213014
C      -0.027203    1.136500   -0.095941
C       1.166708    1.953469   -0.010157
C       2.161958    2.626408    0.059442
C      -1.266222    1.875253   -0.030569
C      -2.309334    2.481455    0.027113
C      -3.566169    3.170169    0.079460
C      -3.908172    4.044713    1.223786
O      -3.541749    4.601279   -0.027774
H       3.044922    3.215553    0.119550
H      -4.383532    2.694935   -0.460573
H      -4.955560    4.146375    1.503546
H      -3.184333    4.169084    2.026340
