15

C       0.011391    1.568603    0.034179
C      -0.057939    0.038048    0.010946
O      -1.391319   -0.429800   -0.020725
C       0.740530   -0.549191   -1.165957
O       0.396175   -0.485315   -2.322933
C       1.934504   -1.244489   -0.618637
C       1.885813   -1.265767    0.723343
C       0.669058   -0.563950    1.230680
O       0.334095   -0.465841    2.383133
H       1.042694    1.930717    0.102458
H      -0.432671    1.967849   -0.882729
H      -0.548520    1.932625    0.898835
H      -1.689490   -0.341424   -0.935945
H       2.693670   -1.681970   -1.256025
H       2.601491   -1.720933    1.397768
