18

C      -0.005262    1.522206    0.022571
C      -0.004552   -0.011777    0.043541
C      -1.420979   -0.589530   -0.064809
O       0.759488   -0.471680   -1.077108
C       1.840646   -1.233141   -0.651089
O       2.607384   -1.718691   -1.436481
C       1.810318   -1.277293    0.808036
C       0.748761   -0.571418    1.242680
N       0.280821   -0.372241    2.506750
H       1.016509    1.905050    0.082239
H      -0.455262    1.875459   -0.908620
H      -0.585271    1.934943    0.855228
H      -1.896480   -0.231816   -0.981697
H      -1.381680   -1.680933   -0.094260
H      -2.036727   -0.287259    0.787827
H       2.549936   -1.806642    1.389308
H       0.890874   -0.592745    3.277710
H      -0.334484    0.407633    2.671122
