16

C      -0.038014    1.504410    0.087054
C      -0.004874    0.017302   -0.038934
C      -0.028514   -0.782635   -1.169017
C       0.023133   -2.125672   -0.734305
O       0.018540   -3.203639   -1.554103
C       0.077683   -2.134572    0.655858
N       0.058047   -0.798744    1.051622
C       0.139690   -3.228994    1.526641
C       0.192945   -4.201746    2.242394
H       0.856268    1.893694    0.589015
H      -0.088207    1.961580   -0.903235
H      -0.909437    1.848259    0.657678
H      -0.077706   -0.441699   -2.190886
H       0.059510   -3.996310   -1.004913
H       0.091126   -0.496676    2.009518
H       0.239846   -5.051593    2.876471
