16

O       0.103043    1.386494    0.136594
C       0.033839   -0.020573   -0.004519
C      -1.371862   -0.522028   -0.129893
N      -2.231286   -0.827684    1.027985
C      -1.908931   -1.919299    0.036910
C      -2.889722   -1.688646   -1.093522
O      -3.625194   -2.389863   -1.720237
C      -2.397857   -0.195422   -1.242198
O      -3.285113    0.856745   -1.028856
H      -0.487460    1.649462    0.850273
H       0.593435   -0.252874   -0.916974
H       0.536049   -0.544178    0.827892
H      -1.635750   -1.000959    1.839126
H      -1.412669   -2.824839    0.362494
H      -1.931999   -0.053008   -2.222633
H      -3.650615    0.725109   -0.144005
