16

C      -0.034220    1.564858   -0.091395
C      -0.004520    0.041583   -0.037070
C      -1.372164   -0.568048    0.286415
C       0.728653   -0.676767   -1.195953
O       2.064750   -0.196733   -1.205347
C       1.750286   -1.288774   -0.308857
C       1.080919   -0.621031    0.887882
O       1.206172   -0.695605    2.073535
H       0.934428    1.961598   -0.403217
H      -0.799087    1.916704   -0.792827
H      -0.271828    1.972988    0.896205
H      -2.117261   -0.251824   -0.451526
H      -1.341349   -1.662951    0.290351
H      -1.707406   -0.239488    1.274229
H       0.320580   -1.078062   -2.116684
H       2.337214   -2.195154   -0.398750
