21

C      -0.063686    1.527823    0.028790
C       1.412897    1.884037   -0.046429
C       2.188823    0.885419    0.387653
C       1.332537   -0.260511    0.876858
C       1.705029   -1.735212    0.738901
C       0.478732   -2.545541    1.215689
C      -0.826429   -2.095277    0.533895
O      -1.063462   -0.692763    0.626436
C       0.037118    0.000051    0.086526
H      -0.525324    1.920790    0.946366
H      -0.652744    1.895578   -0.816638
H       1.765222    2.849835   -0.390625
H       3.271063    0.909436    0.454774
H       1.101385   -0.083394    1.941551
H       1.933092   -1.970713   -0.309295
H       2.590249   -2.000485    1.327755
H       0.618392   -3.616470    1.029173
H       0.370094   -2.420216    2.300135
H      -0.803609   -2.390307   -0.529716
H      -1.689490   -2.581973    0.996767
H       0.214954   -0.355218   -0.945931
