15

O       0.095200    1.318211   -0.044376
C      -0.031893   -0.070000   -0.025280
C       0.365958   -0.686923    1.340930
O      -0.534570    0.056019    2.219738
C      -1.553968   -0.772578    1.629759
C      -0.562248   -1.960698    1.394042
C      -1.194286   -2.121727    0.016144
O      -1.467250   -3.046492   -0.691433
C      -1.499244   -0.622195    0.040748
H      -0.222078    1.620281    0.819560
H       0.525042   -0.468585   -0.876406
H       1.404536   -0.675179    1.666304
H      -2.502595   -0.812288    2.157713
H      -0.351955   -2.755494    2.104260
H      -2.257979   -0.142533   -0.569524
