22

C      -0.422272    1.478279   -0.101264
C       0.108038    0.050477    0.095954
C       0.826951   -0.494974   -1.102060
N       0.126371   -0.909079   -2.345048
C       0.985373   -1.881652   -1.616788
C       2.413300   -1.615091   -2.091273
C       2.267980   -0.138293   -1.549674
C       2.452746    0.992208   -2.549162
O       3.026023    0.072352   -0.367189
H       0.398289    2.180268   -0.277635
H      -1.101325    1.536213   -0.958078
H      -0.965833    1.817765    0.785750
H       0.794217    0.027367    0.949083
H      -0.723853   -0.623755    0.341330
H      -0.839575   -1.107044   -2.082056
H       0.567357   -2.808834   -1.242629
H       3.167243   -2.152627   -1.512391
H       2.587112   -1.742978   -3.163194
H       1.769892    0.865865   -3.391879
H       2.263282    1.960963   -2.076355
H       3.479116    0.998639   -2.938682
H       3.943048    0.212502   -0.626129
