14

C      -0.193049    1.429080   -0.085295
C       0.238182   -0.009961   -0.009915
O       1.138939   -0.464389    0.630529
O      -0.583195   -0.778668   -0.812451
C      -0.286125   -2.102922   -0.907610
N      -0.947804   -3.002002   -0.205819
N      -0.384117   -4.149166   -0.657796
C       0.557955   -3.879748   -1.581781
N       0.644899   -2.576544   -1.770161
H       0.425285    2.027906    0.581709
H      -0.094442    1.789929   -1.113105
H      -1.246842    1.518389    0.192054
H      -0.694279   -5.034658   -0.292854
H       1.138014   -4.641227   -2.080587
