14

C       0.008178   -1.250978   -0.102241
C       0.023168   -0.051643   -0.018354
C       0.022783    1.394919    0.072559
C      -0.219499    2.085958    1.478346
C       1.112133    2.819554    1.297809
N       2.144733    1.760327    1.200257
C       1.371682    2.142426   -0.000001
H       0.009329   -2.310516   -0.168517
H      -0.673164    1.816212   -0.659553
H      -1.095896    2.736132    1.464709
H      -0.262253    1.411469    2.334810
H       1.368395    3.819703    1.623487
H       3.050211    2.223685    1.127276
H       1.867041    2.490558   -0.897897
