16

C      -0.023774    1.510855   -0.249703
C      -0.014667    0.080268    0.302464
C      -1.391612   -0.536426    0.253268
N      -1.829444   -1.102326   -1.013273
C      -1.600985   -2.034984    0.119985
C      -0.470566   -2.928662   -0.017530
N       0.443520   -3.629314   -0.105089
C      -2.751460   -2.599593    0.788559
N      -3.693683   -3.023872    1.306859
H       0.978818    1.944441   -0.208458
H      -0.355692    1.521603   -1.292124
H      -0.691993    2.159342    0.327139
H       0.677484   -0.541120   -0.273388
H       0.333635    0.074080    1.341899
H      -2.146696   -0.049912    0.869849
H      -2.830139   -0.992436   -1.162770
