17

C       0.051997    1.412838   -0.155372
C       0.225896   -0.061680    0.006245
O      -0.819920   -0.909629   -0.469507
C      -0.636095   -1.811458    0.659314
C       0.546672   -1.000886    1.173384
C       1.521217   -0.825674    0.041943
O       1.798412   -1.916558   -0.804518
C       1.583524   -1.739984   -2.132077
O       1.788993   -2.604521   -2.927071
H       0.904929    1.951238    0.267089
H      -0.024486    1.673520   -1.216967
H      -0.860256    1.753050    0.343589
H      -1.509876   -1.777435    1.316390
H      -0.436341   -2.838170    0.339138
H       0.799911   -0.814631    2.208418
H       2.403524   -0.239871    0.287572
H       1.217721   -0.727303   -2.373405
