18

C      -0.031149    1.574356   -0.020708
C       1.471726    1.964843   -0.033653
C       2.181405    0.592199    0.016423
C       2.384161    0.102522    1.452631
O       1.158049    0.157204    2.172979
C       0.102272   -0.490416    1.472143
C       0.017985    0.030068    0.034931
O       1.252661   -0.298711   -0.616631
H      -0.564624    1.998015    0.833097
H      -0.534398    1.903834   -0.932374
H       1.736186    2.493659   -0.952004
H       1.745206    2.598295    0.813114
H       3.119305    0.553078   -0.544218
H       2.771918   -0.928149    1.426334
H       3.092755    0.732663    1.999618
H       0.264915   -1.579580    1.447764
H      -0.814577   -0.282642    2.033033
H      -0.791099   -0.462954   -0.510793
