19

C      -0.014220    1.551191   -0.035305
C       0.152521    0.030666    0.012994
C       0.601320   -0.547093   -1.327963
N       0.752119   -1.997257   -1.236506
C       1.316852   -2.720421   -2.246422
C       1.330236   -4.062854   -2.537554
C       2.159699   -4.126886   -3.680735
N       2.611739   -2.959877   -4.068163
O       2.058536   -2.045746   -3.135303
H       0.928947    2.044294   -0.293382
H      -0.758691    1.846941   -0.782223
H      -0.340234    1.941359    0.932892
H       0.883168   -0.248058    0.781015
H      -0.799962   -0.433059    0.306019
H      -0.112050   -0.264599   -2.118374
H       1.569844   -0.127743   -1.614428
H       0.009511   -2.478181   -0.751745
H       0.835120   -4.862922   -2.015014
H       2.448346   -5.002659   -4.246620
