14

O       0.027735    1.383195    0.009315
C      -0.009809   -0.018905    0.003077
C      -1.461453   -0.479223    0.012591
O      -2.399477    0.283291    0.023713
C      -1.682113   -1.944203    0.007899
N      -0.690557   -2.846288   -0.004154
N      -1.333297   -3.997633   -0.004087
N      -2.663790   -3.944180    0.006938
C      -2.909535   -2.637782    0.014806
H       0.950279    1.653590    0.001865
H       0.474060   -0.461439   -0.883648
H       0.488223   -0.469631    0.877766
H      -0.842457   -4.878414   -0.012003
H      -3.913058   -2.246849    0.024704
