18

O      -0.153477   -0.033008    0.207843
C      -0.092686    1.153855    0.079869
C      -1.094182    2.332547    0.100347
C       0.031427    3.016678    0.966485
C       1.000649    2.246596    0.019085
N       0.731742    2.933633   -1.265663
C       0.686321    2.046727   -2.478461
C      -0.860341    2.159623   -2.552592
C      -0.794694    2.995482   -1.250710
H      -2.125234    2.225420    0.429517
H       0.092290    4.105016    0.905963
H       0.059473    2.668911    1.999852
H       2.052113    2.071300    0.237364
H       1.229543    2.485001   -3.319797
H       1.069046    1.035436   -2.305263
H      -1.233794    2.709928   -3.417695
H      -1.406302    1.217176   -2.472454
H      -1.194330    4.012456   -1.314915
