15

O       0.003405    0.033938   -0.090887
C      -0.002023    1.228530   -0.010162
C      -1.218853    2.181485    0.053462
N      -1.187617    2.695235    1.443554
C       0.051447    3.059641    1.931635
N       1.190787    2.836156    1.392183
C       1.150629    2.231117    0.030351
C       0.597153    3.261938   -0.937858
C      -0.745725    3.233356   -0.930142
H      -2.173877    1.696143   -0.143337
H      -1.977102    3.244551    1.754388
H       0.019381    3.568802    2.895759
H       2.126467    1.813435   -0.213476
H       1.220474    3.946908   -1.499702
H      -1.405489    3.890218   -1.484555
