17

N       0.200467   -1.150213    0.083031
C       0.095150    0.000577    0.018292
C      -0.087649    1.418952   -0.041109
C       0.255811    2.217939   -1.242378
N       1.091584    2.411531   -0.055173
C       0.328918    3.239512    0.974903
C      -0.649752    4.351928    0.513669
C      -1.830906    3.324197    0.567789
C      -0.835334    2.227878    1.041508
H       0.785029    1.695877   -2.033504
H      -0.417408    2.993732   -1.591501
H       0.985684    3.449552    1.817303
H      -0.739342    5.149832    1.254189
H      -0.438174    4.815753   -0.453023
H      -2.583147    3.568597    1.320151
H      -2.345215    3.122541   -0.375265
H      -1.068385    1.660546    1.940066
