20

C       0.153581    1.434882    0.205284
C      -0.010679   -0.037060   -0.024805
C      -0.894181   -0.905009    0.776199
N       0.579150   -1.087980    0.918632
C       0.968181   -1.857621   -0.296505
C       2.246978   -2.647459   -0.290341
C       0.902675   -3.350244   -0.260559
O       0.442056   -3.981268    0.896867
C       0.474766   -0.788891   -1.271936
H       1.164349    1.765651   -0.055501
H      -0.555941    2.002171   -0.408808
H      -0.027991    1.687025    1.253941
H      -1.346725   -0.473619    1.664131
H      -1.471976   -1.697053    0.306028
H       2.835567   -2.690885   -1.201916
H       2.821630   -2.631370    0.630773
H       0.591273   -3.893412   -1.148090
H       0.436024   -3.318844    1.599343
H      -0.288141   -1.065348   -2.006387
H       1.294662   -0.277065   -1.782922
