17

C       0.304075    0.437403    1.220562
C      -0.226795   -0.469089    0.101952
C       0.752142   -0.597744   -1.039746
O       1.997599   -1.267166   -0.786061
C       1.089195   -1.910874   -1.678368
C       0.464454   -3.134186   -1.258586
C      -0.057738   -4.171249   -0.948049
C       0.920789    0.585107   -1.953616
O       0.166962    1.522222   -1.994683
H       1.247185    0.050123    1.617088
H       0.473270    1.455091    0.857832
H      -0.415250    0.489212    2.042401
H      -0.449306   -1.465624    0.491620
H      -1.155832   -0.056796   -0.305671
H       1.414220   -1.899891   -2.719616
H      -0.516455   -5.087395   -0.666717
H       1.824083    0.515222   -2.600189
