19

C      -0.018492    1.563069   -0.115522
C       0.026556    0.053216    0.036083
O       0.667537   -0.524258   -1.128486
C       1.401526   -1.628652   -0.812880
O       1.939646   -2.296489   -1.648400
C       1.434243   -1.819858    0.700043
C       2.796684   -1.417390    1.326588
C       2.237647    0.020287    1.529937
C       0.800395   -0.513111    1.231164
H       0.986499    1.989935   -0.162737
H      -0.550459    1.839132   -1.029553
H      -0.544712    2.006079    0.736083
H      -1.000162   -0.338008    0.057905
H       1.019260   -2.794903    0.962067
H       2.969657   -1.935445    2.272453
H       3.677409   -1.537562    0.692667
H       2.388555    0.470755    2.512419
H       2.598771    0.720033    0.772556
H       0.174850   -0.600764    2.120469
