19

C      -0.036365    1.467587    0.002769
N       0.005327    0.022144   -0.008414
C      -0.017266   -0.758863   -1.146002
C       0.031438   -2.072822   -0.746630
O       0.031216   -3.139909   -1.603292
C       0.077155   -2.112998    0.674943
C       0.133126   -3.338724    1.532910
C       0.058266   -0.792226    1.099179
N       0.100444   -0.217046    2.391781
H       0.104259    1.802178    1.030494
H       0.760534    1.880219   -0.624819
H      -0.998188    1.841677   -0.367373
H      -0.065858   -0.323762   -2.129825
H       0.070721   -3.945266   -1.079717
H       1.053878   -3.919589    1.383967
H       0.093442   -3.070432    2.593208
H      -0.709432   -4.018798    1.346222
H       0.869502   -0.581275    2.942703
H      -0.754383   -0.375261    2.915826
