13

N      -0.217702    1.386960    0.007707
C      -0.048880   -0.047391   -0.010054
C      -0.499744   -0.780250    1.254724
C      -1.382588   -0.811001    0.045624
O      -2.544131   -0.069315   -0.017603
C       1.047907   -0.590494   -0.770935
N       1.926711   -1.003941   -1.401611
H       0.483426    1.836029    0.588477
H      -0.133364    1.770059   -0.929054
H       0.046237   -1.674671    1.530572
H      -0.799582   -0.140762    2.077847
H      -1.452444   -1.735058   -0.517439
H      -2.280830    0.850034    0.151392
