17

N       0.335039    0.821153    0.854878
C      -0.007118    0.067544   -0.210629
O       0.628643    0.004200   -1.249751
C      -1.324838   -0.751693   -0.001852
N      -2.283190    0.106117    0.724498
C      -1.835172   -1.172838   -1.405667
O      -2.096408   -0.031319   -2.196082
C      -1.024066   -1.941294    0.789963
C      -0.801354   -2.948070    1.407363
H       1.128530    1.435845    0.778560
H      -0.354929    0.959806    1.577262
H      -2.691813    0.737955    0.036595
H      -3.038422   -0.470633    1.083917
H      -1.104584   -1.839534   -1.875365
H      -2.779265   -1.712724   -1.284986
H      -1.226127    0.305485   -2.448593
H      -0.591907   -3.831254    1.959236
