13

O       0.310247    1.405368   -0.115735
C       0.113073    0.025319    0.077578
C       0.708852   -0.532212    1.343997
C      -0.140093   -1.339922    1.984164
C      -1.489117   -1.429703    1.309605
C      -1.376580   -0.320709    0.262854
O      -2.266019    0.292263   -0.268299
H      -0.504832    1.733004   -0.521905
H       0.488558   -0.541963   -0.796689
H       1.725863   -0.313159    1.644991
H       0.087881   -1.887221    2.891452
H      -1.656412   -2.396885    0.814534
H      -2.346483   -1.264242    1.970808
