19

O       0.485613    1.194748   -0.503835
C       0.263583   -0.148621   -0.138955
C      -1.205006   -0.395680    0.209102
N      -2.011241   -0.008101   -0.949620
C      -2.491919   -1.043418   -1.858287
C      -3.441153   -0.272974   -1.004696
C      -4.189979   -0.980411    0.119497
C      -4.524346   -0.081962    1.226155
N      -4.784432    0.635727    2.093409
H      -0.248598    1.424783   -1.088760
H       0.565118   -0.842608   -0.942870
H       0.891670   -0.362648    0.732283
H      -1.344729   -1.446551    0.511114
H      -1.490552    0.246565    1.049183
H      -2.407141   -0.836589   -2.921296
H      -2.310051   -2.082100   -1.581665
H      -4.015355    0.533333   -1.456840
H      -5.121553   -1.397966   -0.280198
H      -3.613463   -1.822466    0.513248
