19

O       0.046620    0.690213    1.592806
C       0.028848    1.330915    0.569945
C      -1.271865    1.564074   -0.200827
O      -1.244588    2.824728   -0.838985
C      -1.385357    2.830527   -2.250497
C      -0.226085    2.165367   -3.002746
C       1.159375    2.453225   -2.408740
O       1.500187    1.551403   -1.364225
C       1.300403    1.949989   -0.022674
H      -1.410146    0.737859   -0.911635
H      -2.099228    1.524130    0.517026
H      -2.342848    2.374106   -2.546052
H      -1.434063    3.892628   -2.512850
H      -0.344049    1.076429   -3.038387
H      -0.260147    2.512650   -4.042928
H       1.919576    2.303088   -3.183369
H       1.234828    3.493913   -2.063148
H       1.248793    3.043065    0.073729
H       2.143138    1.581183    0.569880
