17

C      -0.033693    1.491222   -0.171108
C       0.049624   -0.021888   -0.121327
C       1.442782   -0.666833   -0.004250
C       0.548576   -0.680670    1.180460
O       0.776156    0.166087    2.259840
C      -0.931039   -0.878666   -0.837735
O      -0.872937   -2.095766   -0.835251
C      -2.103300   -0.292535   -1.643901
O      -2.294840    0.867198   -1.892317
H       0.712282    1.914840    0.503623
H       0.145348    1.868639   -1.180644
H      -1.013952    1.852671    0.145759
H       1.593773   -1.597144   -0.539570
H       2.272779    0.031920   -0.004687
H       0.060174   -1.623331    1.421378
H       1.649623   -0.026976    2.615355
H      -2.760800   -1.110972   -2.007978
