23

C      -0.162468    1.613041   -0.136917
C      -0.017625    0.092636   -0.008389
C       0.703772   -0.587888   -1.238797
C       1.613676   -1.742836   -0.701469
C       1.974218   -1.175588    0.650997
C       2.387890   -1.511210    2.115565
C       1.906566   -0.009162    2.122414
C       2.746786    0.174636    0.838936
C       0.714334   -0.498811    1.227171
H       0.801436    2.123324   -0.221696
H      -0.747451    1.870753   -1.027215
H      -0.681977    2.030672    0.731875
H      -1.036705   -0.308352    0.036372
H      -0.016989   -0.947286   -1.979436
H       1.330093    0.152382   -1.748952
H       1.042480   -2.672697   -0.593575
H       2.458529   -1.942241   -1.367742
H       1.761761   -2.230537    2.651162
H       3.450746   -1.674211    2.315682
H       1.874020    0.648369    2.993418
H       3.832448    0.090579    0.947380
H       2.489475    1.006024    0.184603
H       0.049558   -1.182109    1.767321
