17

C      -0.457147    1.109730    0.179497
O       0.455543    0.062604   -0.113143
C       0.913046   -0.585676    1.010145
C       0.095646   -1.717424    1.625503
C      -1.176174   -2.081987    1.085587
C      -2.258600   -2.391170    0.662134
C       1.399858   -1.998688    0.832713
C       1.357407   -2.641775   -0.444173
C       1.354418   -3.208418   -1.503847
H       0.008526    1.877699    0.814947
H      -0.735445    1.558960   -0.775661
H      -1.355575    0.726902    0.677998
H       1.463481    0.041404    1.715029
H       0.193359   -1.839912    2.700645
H      -3.207342   -2.670379    0.276236
H       2.243089   -2.280135    1.457078
H       1.340553   -3.697609   -2.445834
