17

O      -0.130860    1.401141    0.350749
C       0.010185    0.015728    0.026474
C       0.969279   -0.648014    0.993909
C       0.531483   -1.357457    2.034456
C      -0.947959   -1.543730    2.193306
O      -1.666930   -0.250606    2.315883
C      -2.348203   -0.508820    1.083269
C      -1.693987   -1.841693    0.882995
C      -1.353194   -0.682728   -0.033718
H      -0.503116    1.412521    1.243132
H       0.454361    0.011236   -0.974474
H       2.027884   -0.463143    0.837608
H       1.207451   -1.787395    2.766627
H      -1.225009   -2.181264    3.035004
H      -3.364031   -0.147869    0.982316
H      -2.066625   -2.803387    0.558430
H      -1.807605   -0.745729   -1.018342
