15

O      -0.010002   -0.057540    0.002859
C      -0.030400    1.142261    0.009351
C      -1.243518    2.082776    0.032173
C      -0.694036    3.535136    0.031274
C       0.789981    3.325475    0.008129
N       1.854825    4.073535   -0.003918
C       2.913388    3.166474   -0.024331
C       2.473566    1.872048   -0.024355
N       1.094351    1.981846   -0.003217
H      -1.868859    1.861903   -0.836786
H      -1.842639    1.853091    0.917173
H      -1.029795    4.105110   -0.839799
H      -1.003648    4.096330    0.917599
H       3.935698    3.513501   -0.037808
H       2.973738    0.919605   -0.036655
