21

C       0.008028    1.514250   -0.009859
C       0.057317    0.006768   -0.033512
C       0.860136   -0.710629   -1.118184
C       0.609736   -2.201829   -0.740251
C      -0.282036   -2.018734    0.481006
C       0.192062   -0.792135    1.302979
O      -1.188431   -0.466835    1.683162
C      -1.254489   -0.819953    0.249710
C      -2.585116   -0.772114   -0.434495
H       1.011526    1.942149    0.095099
H      -0.420333    1.911530   -0.937479
H      -0.603921    1.855537    0.829500
H       0.498167   -0.462780   -2.122001
H       1.920896   -0.439964   -1.084618
H       0.109239   -2.760440   -1.537460
H       1.534385   -2.736193   -0.501378
H      -0.660786   -2.883447    1.025611
H       0.959059   -0.726106    2.076569
H      -2.993948    0.243213   -0.417183
H      -2.489046   -1.086540   -1.479051
H      -3.297178   -1.438751    0.061845
