18

O       0.028645   -0.046610    0.272363
C      -0.019692    1.144945    0.088246
C      -1.302260    2.027291    0.016346
C      -0.780480    3.442055   -0.021173
C       0.065807    3.974796    1.107551
C       0.746675    3.360686   -0.089717
C       0.771749    4.296125   -1.312589
C      -0.788164    4.420492   -1.214406
N       1.079645    1.982386   -0.064808
H      -1.861002    1.765386   -0.888224
H      -1.938940    1.778250    0.869910
H       0.116442    5.048530    1.268726
H       0.096320    3.380481    2.014266
H       1.360717    5.211930   -1.207158
H       1.087815    3.775036   -2.217946
H      -1.297759    4.016858   -2.091943
H      -1.193835    5.415121   -1.005792
H       1.995238    1.615188    0.147485
