21

C       0.029524    1.541916    0.016353
C      -0.009076    0.029160    0.001938
C       0.449205   -0.679826   -1.307854
C      -0.804578   -1.632692   -1.251629
C      -0.524837   -3.007062   -0.701263
C      -0.544843   -3.019305    0.633502
C      -0.841411   -1.655197    1.200346
C       0.409827   -0.703838    1.311697
C      -1.327369   -0.821718   -0.025672
H       1.063628    1.908947    0.035064
H      -0.453665    1.963355   -0.872961
H      -0.479978    1.947170    0.898474
H       0.411272    0.000548   -2.164465
H       1.427923   -1.168170   -1.293902
H      -1.406949   -1.628748   -2.163025
H      -0.272616   -3.852952   -1.332169
H      -0.311435   -3.876699    1.256066
H      -1.470889   -1.667824    2.093155
H       1.388666   -1.192092    1.318226
H       0.345955   -0.039278    2.179115
H      -2.334005   -0.402264   -0.036943
