17

O       0.302498    1.514722    0.140232
C       0.177333    0.103708    0.092416
C       0.741950   -0.489572   -1.218679
C      -0.081690   -0.084185   -2.456407
O      -0.167069    1.343862   -2.610308
C       0.436152   -0.711957   -3.671291
C       0.905087   -1.204603   -4.662187
C       0.869673   -0.467735    1.248122
C       1.440707   -0.969213    2.178133
H      -0.025946    1.835130   -0.712875
H      -0.886990   -0.189176    0.160775
H       1.780004   -0.161401   -1.339302
H       0.747423   -1.581964   -1.150909
H      -1.121998   -0.398310   -2.303872
H       0.673378    1.646099   -2.975265
H       1.302121   -1.646088   -5.543223
H       1.939629   -1.400568    3.010487
