23

C      -0.506836    1.569685   -0.071520
C      -0.067612    0.085015   -0.024031
C      -1.336724   -0.792579    0.053865
C       0.682784   -0.285113   -1.321007
C       2.102596    0.254001   -1.490139
O       3.045622   -0.506655   -0.757785
C       3.223272   -0.117947    0.582253
C       2.030613   -0.179762    1.500765
C       0.721758   -0.111943    1.255887
H       0.350483    2.241382   -0.173230
H      -1.181969    1.744516   -0.917138
H      -1.036444    1.849976    0.844831
H      -1.952627   -0.666177   -0.843215
H      -1.076965   -1.852600    0.139707
H      -1.950294   -0.524656    0.920776
H       0.754422   -1.376113   -1.401429
H       0.074013    0.053376   -2.170157
H       2.398846    0.160579   -2.540811
H       2.174851    1.320926   -1.225007
H       4.001800   -0.783454    0.973363
H       3.642929    0.906473    0.630155
H       2.326692   -0.249538    2.547787
H       0.077011   -0.142410    2.135119
