22

C       0.200499    1.678325    0.890680
C       0.075856    0.247944    0.392746
C      -1.167178   -0.454779    0.947286
N      -2.397539    0.246864    0.600503
C      -3.146397   -0.246175   -0.552332
C      -3.643290   -0.472715    0.831921
C       0.370092    0.024213   -1.116162
C       1.579512   -0.789668   -0.622470
O       1.248937   -0.539863    0.757993
H       1.097707    2.152322    0.482533
H      -0.680094    2.258085    0.602071
H       0.275327    1.689673    1.983222
H      -1.167461   -1.504892    0.604607
H      -1.079881   -0.473195    2.040536
H      -3.596336    0.511415   -1.187554
H      -2.756911   -1.113928   -1.082862
H      -3.580903   -1.488659    1.219494
H      -4.463578    0.117289    1.230956
H      -0.385021   -0.541849   -1.663136
H       0.609161    0.930837   -1.674407
H       1.562881   -1.860620   -0.860524
H       2.566208   -0.389196   -0.886169
