13

O       0.026044   -0.034472   -0.010300
C       0.007248    1.171344   -0.055155
N      -1.104878    1.995764    0.010785
C      -0.731887    3.380810    0.008011
C       0.453845    3.807312    0.892204
O       1.158601    2.660073    1.341218
C       1.191755    2.153927   -0.045176
C       0.653792    3.499868   -0.568650
H      -1.940594    1.656807    0.462131
H      -1.492315    4.106205   -0.251689
H       0.507148    4.710459    1.488631
H       2.164805    1.758211   -0.323828
H       0.962330    4.075412   -1.429953
