14

O       0.104526    1.419514   -0.084272
C       0.104638    0.021203    0.059698
C      -1.344530   -0.508109    0.060432
O      -2.022624   -0.016446   -1.102642
C      -1.396607   -1.960285    0.164067
C      -1.398921   -3.170014    0.217487
C      -1.410673   -4.528676    0.281934
C      -1.419508   -5.734693    0.338008
H      -0.520448    1.608117   -0.796854
H       0.662353   -0.482395   -0.748127
H       0.594351   -0.221243    1.007588
H      -1.872072   -0.049972    0.905466
H      -1.775723   -0.581202   -1.844737
H      -1.429859   -6.795333    0.389278
