18

C       0.005793    1.576610    0.148817
N       1.495972    1.236512    0.080099
C       1.130165    0.035064    0.995954
C       0.011688    0.034705   -0.057571
O      -1.051113   -0.810364   -0.324358
C      -1.631625   -0.464577   -1.590307
C      -0.731413    0.206729   -2.611557
C       0.525179    0.616039   -2.404677
C       1.110628    0.254688   -1.083077
H      -0.302168    1.959226    1.124449
H      -0.337336    2.215271   -0.664927
H       1.861817   -0.775751    0.970004
H       0.893367    0.341874    2.016934
H      -2.027155   -1.397575   -2.009157
H      -2.500244    0.194064   -1.420015
H      -1.214523    0.360406   -3.574485
H       1.108753    1.087778   -3.190118
H       1.879432   -0.520458   -1.172218
