14

O       0.035889    0.011317   -0.069131
C      -0.013626    1.202070    0.007217
C      -1.179544    2.193615    0.036195
C      -0.594141    3.343011    0.931833
O       0.715050    2.904013    1.306102
C       1.090411    2.285203    0.058524
C       0.578110    3.250104   -1.023745
C      -0.407467    4.138333   -0.373656
N      -0.923012    3.018185   -1.216913
H      -2.195403    1.829817    0.145135
H      -1.137322    3.738348    1.785286
H       2.131840    1.980876    0.053886
H       1.132924    3.515022   -1.912154
H      -0.578826    5.183581   -0.598894
