19

C       0.279814    1.318974   -0.510786
C       0.038904   -0.011750    0.199665
O       0.326615    0.065303    1.598633
C      -1.352265   -0.545626   -0.015536
C      -2.283472   -0.421247   -1.028468
C      -3.386994   -1.212305   -0.620967
C      -4.681015   -1.442672   -1.336570
N      -3.156734   -1.781024    0.562127
N      -1.919929   -1.367553    0.901740
H       1.296013    1.666606   -0.308662
H       0.156544    1.213077   -1.592606
H      -0.430276    2.078283   -0.164930
H       0.766843   -0.744584   -0.172260
H      -0.228329    0.762547    1.968183
H      -2.186344    0.153565   -1.935620
H      -4.522038   -1.918444   -2.310689
H      -5.324588   -2.091378   -0.738600
H      -5.212560   -0.502102   -1.518799
H      -1.510221   -1.641211    1.779119
