18

C      -0.049956    1.537806    0.043195
C      -0.035327    0.034236   -0.030742
C       0.349510   -0.813524   -1.294670
C      -0.307314   -1.950911   -0.475825
N       0.651204   -2.049686    0.643659
C       0.777577   -0.714166    1.048478
O       1.354885   -0.276840    2.009239
C      -1.322069   -0.859780    0.009696
O      -1.927620   -0.973391    1.266238
H       0.965996    1.939390   -0.020771
H      -0.644661    1.972422   -0.766366
H      -0.470964    1.864812    0.998437
H      -0.214462   -0.523208   -2.183902
H       1.409963   -0.930858   -1.520703
H      -0.594037   -2.910642   -0.902365
H       0.504620   -2.734743    1.372074
H      -2.036915   -0.573188   -0.772558
H      -2.751723   -1.461170    1.174865
