19

C      -0.005083    1.587879   -0.044796
C       0.011822    0.058085   -0.076933
C      -1.395151   -0.536913    0.060237
N      -1.409796   -1.990370    0.018536
C      -1.520634   -2.810576   -1.103206
C      -1.429269   -4.088621   -0.637765
N      -1.257269   -4.100394    0.737435
C      -1.249003   -2.836669    1.068094
O      -1.102122   -2.332130    2.309221
H       1.006098    1.994333   -0.135851
H      -0.603371    1.998391   -0.865946
H      -0.430199    1.961082    0.893452
H       0.458195   -0.297475   -1.012970
H       0.635179   -0.330497    0.736168
H      -1.843753   -0.224673    1.007985
H      -2.043927   -0.172383   -0.743184
H      -1.660753   -2.394841   -2.087031
H      -1.480565   -5.007666   -1.200594
H      -1.030478   -3.094005    2.897595
