20

C       0.083524    1.514079   -0.163029
C      -0.055654    0.030218    0.098526
C      -1.110566   -0.664685   -0.737448
O       1.182259   -0.699779    0.211701
C       0.351073   -0.591596    1.375250
C       0.939641    0.128164    2.565618
C       2.151928   -0.656105    3.115728
C       2.755927   -0.010949    4.278000
N       3.218438    0.514392    5.197563
H       0.915863    1.952254    0.388949
H       0.263748    1.686448   -1.229507
H      -0.836448    2.043064    0.107958
H      -0.892964   -0.540846   -1.803699
H      -1.141373   -1.734393   -0.517343
H      -2.101533   -0.238938   -0.546578
H      -0.147386   -1.529848    1.635917
H       1.260842    1.136937    2.299649
H       0.177135    0.223262    3.346489
H       1.853877   -1.673051    3.396464
H       2.905148   -0.752497    2.326720
