20

O      -0.007964    1.491768    0.772721
C       0.152075    0.183510    0.247852
C      -1.213844   -0.457553    0.066113
C      -1.510476   -1.978685    0.032348
C      -1.201460   -1.948570    1.546665
N      -2.038987   -0.666545    1.366674
C      -2.941425   -1.586327    0.494037
C      -4.012621   -0.895848   -0.332674
O      -4.919492   -0.231797    0.532166
H      -0.598751    1.410388    1.531396
H       0.628346    0.295798   -0.732778
H       0.834270   -0.413750    0.867560
H      -1.759131    0.156466   -0.651620
H      -1.212894   -2.721337   -0.715451
H      -1.690485   -2.693067    2.179732
H      -0.179099   -1.775110    1.878228
H      -3.437857   -2.328417    1.128288
H      -3.606275   -0.209584   -1.087455
H      -4.590376   -1.655992   -0.870790
H      -4.382149    0.273014    1.154753
