15

C      -0.020193    1.522467   -0.017301
C      -0.062062    0.028347   -0.003074
C      -1.191043   -0.713157   -0.110410
C      -1.105486   -2.141735   -0.083944
O      -2.262387   -2.831803   -0.194848
N       0.004961   -2.798002    0.038781
N       1.122417   -2.038686    0.144726
C       1.231534   -0.658936    0.138877
O       2.315256   -0.102692    0.243838
H       0.618867    1.874062   -0.834121
H      -1.017425    1.954041   -0.125368
H       0.439956    1.895652    0.903683
H      -2.169955   -0.257576   -0.217078
H      -2.036998   -3.771455   -0.160023
H       1.982802   -2.559716    0.239956
