24

C      -0.410850    1.484231   -0.160193
C      -0.008090    0.003132   -0.019936
C       0.956165   -0.122391    1.180789
C      -1.288410   -0.810866    0.263888
C       0.680851   -0.545519   -1.289914
C       0.869593   -2.069773   -1.356544
O       1.736148   -2.446241   -2.401322
C       0.595438    0.155353   -2.597854
N       1.866097    0.143410   -1.841362
H       0.432247    2.126468   -0.438759
H      -1.204013    1.622699   -0.900270
H      -0.787980    1.853703    0.798583
H       0.474738    0.243657    2.093573
H       1.258920   -1.157451    1.359748
H       1.865783    0.467179    1.024998
H      -1.969716   -0.788376   -0.593212
H      -1.068104   -1.856594    0.494953
H      -1.819262   -0.390740    1.124585
H       1.241285   -2.437705   -0.386327
H      -0.093403   -2.557380   -1.542113
H       2.425374   -1.763077   -2.409095
H       0.619550   -0.432936   -3.509694
H       0.052557    1.090964   -2.665797
H       2.019776    1.037046   -1.383329
