18

C      -0.014650    1.404437    0.008671
C       1.421748    1.951335    0.029081
C       2.206558    1.252920   -1.042587
C       1.736624    0.086018   -1.596443
C       0.449555   -0.575618   -1.214351
O      -0.042613   -0.018701   -0.007581
N       2.631387   -0.326078   -2.550947
C       3.679008    0.565898   -2.607784
C       3.443935    1.555910   -1.683110
H      -0.565694    1.699693    0.905871
H      -0.550542    1.801651   -0.869046
H       1.396861    3.037271   -0.125584
H       1.864426    1.784809    1.020274
H      -0.305824   -0.475894   -2.016635
H       0.576096   -1.648745   -1.022830
H       2.549561   -1.155535   -3.112452
H       4.495356    0.416856   -3.295913
H       4.084606    2.403172   -1.489154
