16

O      -0.463076    1.197657    0.115481
C       0.010729   -0.137724   -0.001385
C       0.821970   -0.316289   -1.204773
C       1.505458   -0.413246   -2.188170
C       0.787427   -0.557445    1.268599
C       1.706747    0.443226    1.942819
C       0.405302    0.080136    2.593433
C       1.174323   -1.943873    1.285252
N       1.468962   -3.062698    1.291975
H       0.133101    1.766752   -0.381728
H      -0.879474   -0.775675   -0.067184
H       2.102772   -0.522209   -3.060284
H       2.629604    0.066784    2.366108
H       1.778107    1.417493    1.473773
H      -0.395943    0.806895    2.546204
H       0.420798   -0.553450    3.471691
