18

O      -0.073784    1.441953   -0.020863
C       0.022966    0.027310   -0.029376
C      -1.394184   -0.509232    0.204724
C      -1.559664   -1.981372   -0.149873
N      -1.711993   -2.280066   -1.572292
C      -0.482721   -2.736079   -0.879755
C       0.773343   -2.013589   -1.255277
O       1.825164   -2.597047   -1.392740
C       0.625579   -0.505276   -1.347831
H       0.815695    1.804322   -0.086719
H       0.669509   -0.311540    0.797364
H      -1.668045   -0.343520    1.250799
H      -2.081901    0.082262   -0.408805
H      -2.148025   -2.572845    0.547552
H      -2.326895   -3.077053   -1.713850
H      -0.351474   -3.796291   -0.684620
H      -0.045370   -0.245225   -2.173291
H       1.612635   -0.072120   -1.532243
