22

C      -0.142615    1.562634   -0.091474
C      -0.016009    0.058697   -0.002705
C       0.916600   -0.672355   -1.007435
C       1.612034   -1.440875    0.149856
C       0.706858   -0.740179    1.200261
C       1.356222   -0.093831    2.402884
C      -0.600319   -1.503000    1.394520
N      -1.644869   -0.492847    1.693802
C      -1.266752   -0.766483    0.285529
H       0.838372    2.049505   -0.049189
H      -0.613787    1.859079   -1.037496
H      -0.753720    1.947514    0.729600
H       0.407022   -1.284861   -1.757351
H       1.587730    0.011889   -1.533422
H       1.535552   -2.531976    0.120630
H       2.668020   -1.181925    0.264342
H       2.131511    0.620375    2.102877
H       0.612883    0.437160    3.003914
H       1.836050   -0.848385    3.039480
H      -0.719965   -2.534932    1.708597
H      -2.509650   -1.001586    1.875645
H      -2.004956   -1.114815   -0.429707
