18

C      -0.433389    1.538773   -0.027849
C      -0.077133    0.071426   -0.028903
C      -0.656373   -0.869016    0.991006
C       0.821813   -0.515387    1.043402
N       1.798541   -1.539257    0.872159
C       2.263256   -1.983360   -0.213554
O       2.052958   -1.656623   -1.513989
C       1.328430   -0.467857   -1.828022
O       0.035746   -0.470909   -1.329046
H       0.333079    2.135865   -0.534726
H      -1.385182    1.699493   -0.544970
H      -0.531634    1.915325    0.994135
H      -1.315532   -0.478129    1.757990
H      -0.893724   -1.864789    0.634587
H       1.100783    0.166904    1.842899
H       2.972398   -2.810034   -0.182042
H       1.900607    0.398827   -1.469971
H       1.271056   -0.466501   -2.918284
