21

C      -0.125931    1.553257    0.001404
C       0.008724    0.030105    0.009848
O      -1.290619   -0.554679   -0.102101
C       0.885165   -0.539288   -1.099927
C       2.300726   -0.622855   -0.560713
C       2.272356   -0.115746    0.879977
C       0.828577   -0.568386    1.199851
C       0.879989   -2.064946    0.810921
C       1.426386   -1.862624   -0.600916
H       0.840152    2.062000   -0.016705
H      -0.691307    1.865030   -0.881955
H      -0.669867    1.900220    0.889487
H      -1.839646   -0.179885    0.595137
H       0.667583   -0.355545   -2.143965
H       3.162196   -0.508900   -1.205712
H       3.011806   -0.614137    1.516601
H       2.424652    0.963183    0.969683
H       0.451256   -0.332979    2.196309
H       1.557382   -2.638136    1.452962
H      -0.107161   -2.529939    0.818733
H       1.629687   -2.682781   -1.276548
