15

C       0.023955   -1.158388   -0.075438
C       0.009756    0.043941   -0.044353
C      -0.063571    1.462251    0.007002
C      -1.187873    2.322879    0.599824
C      -0.484015    3.523465   -0.080605
C       0.865120    3.565631    0.656556
N       1.239509    2.253963    0.029408
C       0.233503    2.492545   -1.034137
H       0.050664   -2.219352   -0.103628
H      -2.138222    2.074373    0.122464
H      -1.309079    2.351237    1.687631
H      -1.038868    4.416883   -0.357891
H       1.551020    4.325701    0.274279
H       0.859926    3.580599    1.752362
H       0.426361    2.415368   -2.096028
