19

C      -0.043740    1.462659    0.064724
C       0.020528   -0.036099   -0.043070
C       0.575572   -0.907111   -1.192723
C       0.087379   -1.926822   -0.149188
C       0.569615   -1.038864    1.053733
C      -0.801723   -1.131699    1.703266
C      -1.359249   -1.774275    2.885547
O      -1.307853   -0.333645    2.751532
C      -1.162881   -1.053812    0.228621
H       0.958206    1.903048    0.010658
H      -0.639132    1.889279   -0.750300
H      -0.498258    1.764508    1.013354
H       0.031186   -0.872822   -2.142508
H       1.655500   -0.858811   -1.368921
H       0.111489   -3.016119   -0.180076
H       1.564546   -1.030453    1.499411
H      -2.360095   -2.203454    2.857342
H      -0.700650   -2.189135    3.647664
H      -2.135944   -1.062381   -0.262971
