22

C      -0.098537    1.589141    0.025346
N       0.076187    0.149158    0.057610
C       1.333982   -0.492435   -0.307958
C       2.621091    0.328161   -0.360162
C       3.055024    0.539686    1.117199
C       3.717723    1.885504    1.368330
O       4.124385    1.928177    2.728708
C       1.793850    0.276377    1.987080
C       0.835410   -0.522650    1.107802
H       0.760069    2.191698    0.357200
H      -0.339770    1.890024   -0.999568
H      -0.951536    1.851816    0.659727
H       1.234097   -1.336078   -0.986774
H       3.388647   -0.203717   -0.929627
H       2.464064    1.285186   -0.874746
H       3.793950   -0.230963    1.365679
H       4.578353    2.008613    0.690716
H       3.005647    2.697688    1.141467
H       4.512715    2.790493    2.902019
H       2.045974   -0.285710    2.889136
H       1.344743    1.215873    2.330456
H       0.342486   -1.391867    1.536723
