19

C      -0.068291    1.289370   -0.506435
C       0.000590   -0.104486    0.115072
O       0.486729   -0.050629    1.458541
C      -1.339426   -0.845344    0.039595
C      -1.240991   -2.276590    0.582572
N      -2.515390   -2.983083    0.586938
C      -3.045320   -3.531137   -0.535333
O      -2.526946   -3.499088   -1.632889
H       0.897799    1.793507   -0.417122
H      -0.338749    1.237248   -1.565659
H      -0.824402    1.903780   -0.000718
H       0.757567   -0.693708   -0.418360
H      -0.079006    0.559592    1.945132
H      -2.094491   -0.284459    0.609651
H      -1.685189   -0.885415   -0.998493
H      -0.544000   -2.851386   -0.035714
H      -0.849018   -2.260742    1.601777
H      -3.043930   -3.040592    1.441907
H      -4.017109   -4.027470   -0.337735
