21

C      -0.012169    1.452161    0.042811
C       0.012735   -0.045237   -0.036286
C      -0.596245   -0.927456   -1.131317
C      -0.391526   -2.115875   -0.150828
C      -0.329607   -1.059358    1.030713
C       1.123123   -0.885076    0.632805
C       1.136663   -2.232904   -0.048378
C       1.900271   -3.437477    0.398860
C       2.113841   -2.858532   -0.993170
H       0.608643    1.903752   -0.740238
H      -1.030688    1.839911   -0.075399
H       0.366609    1.805301    1.008364
H      -1.655972   -0.692437   -1.274084
H      -0.095115   -0.989396   -2.105005
H      -1.020261   -3.003584   -0.195158
H      -0.826338   -0.978894    1.987182
H       1.915440   -0.410267    1.199189
H       2.692269   -3.308620    1.130294
H       1.375150   -4.384571    0.478393
H       1.729952   -3.420487   -1.839471
H       3.048921   -2.343757   -1.190692
