18

C      -0.058092    1.282352   -0.215943
C       1.281607    0.666437   -0.136325
C       1.676511    0.165749    1.252366
O       2.087240    1.026448    2.285986
C       1.084317    1.799220    2.924251
C      -0.243288    1.111862    3.087517
C      -0.611713    0.048626    2.371652
C       0.295512   -0.525985    1.339488
N       0.005623   -0.183017   -0.130243
H      -0.481056    1.849682    0.605899
H      -0.367120    1.622324   -1.200188
H       1.950973    0.660391   -0.991114
H       2.481305   -0.567486    1.161787
H       1.493338    2.057420    3.908523
H       0.937527    2.755359    2.391842
H      -0.910924    1.546311    3.827648
H      -1.585471   -0.411877    2.516416
H       0.350819   -1.614337    1.413537
