19

C      -0.061278    1.571948   -0.089532
C       0.030347    0.041842   -0.043221
C       0.733872   -0.519488   -1.284412
C       0.752861   -0.454174    1.239908
O       2.098881    0.011106    1.320513
C      -0.000473   -0.130943    2.452893
C      -0.615729    0.163930    3.453685
C      -1.307915    0.490647    4.578654
C      -1.922300    0.781927    5.576565
H       0.935439    2.022122   -0.160169
H      -0.626004    1.896278   -0.968397
H      -0.559950    1.973193    0.798108
H      -0.987666   -0.366289    0.003467
H       1.777172   -0.192047   -1.313735
H       0.724973   -1.614728   -1.287456
H       0.239767   -0.177509   -2.198879
H       0.842342   -1.546011    1.170794
H       2.075469    0.926151    1.620314
H      -2.462714    1.035958    6.454472
