23

C      -0.027279    1.544093    0.040735
C       0.063946    0.029424    0.057740
C      -1.168687   -0.648228   -0.522025
C       1.346066   -0.722068   -0.213297
C       2.590807   -0.016404    0.349415
C       1.932547   -0.049636    1.745189
C       2.626582   -0.417925    3.021665
C       2.014070    0.956550    2.858752
C       0.705861   -0.745635    1.187771
H       0.846911    2.024720    0.482968
H      -0.132427    1.913018   -0.986677
H      -0.906591    1.882138    0.601854
H      -1.325407   -0.350134   -1.565318
H      -1.077750   -1.738906   -0.496261
H      -2.069077   -0.373546    0.039601
H       1.378333   -1.519718   -0.946873
H       3.484435   -0.644659    0.299091
H       2.830272    0.965892   -0.072314
H       2.133649   -1.120601    3.686666
H       3.709139   -0.500582    3.011629
H       2.687011    1.800102    2.738752
H       1.110316    1.184581    3.414834
H       0.183581   -1.558798    1.681911
