21

C       0.115240    1.470631    0.103921
C      -0.084875   -0.047799    0.073896
C      -1.553701   -0.537172   -0.089235
C      -2.197107    0.015836   -1.363817
C      -1.621846   -2.073035    0.028116
C      -1.786785   -2.301432    1.536906
O      -2.442712   -1.124697    2.038201
C      -2.352738   -0.100304    1.148583
O      -2.837705    0.973941    1.367949
H       1.165726    1.706502    0.299631
H      -0.152689    1.931458   -0.851036
H      -0.493011    1.938853    0.881552
H       0.489806   -0.479312   -0.755781
H       0.333182   -0.483231    0.990472
H      -1.584833   -0.220913   -2.240437
H      -3.191582   -0.414071   -1.518476
H      -2.313124    1.099656   -1.299721
H      -2.498139   -2.453298   -0.506192
H      -0.738979   -2.577005   -0.373000
H      -2.412018   -3.162016    1.784406
H      -0.826430   -2.411219    2.053097
