25

C      -0.127030    1.401028    0.088340
O      -0.015382    0.001832   -0.028414
C       0.667929   -0.529234   -1.178117
C      -0.038906   -0.115487   -2.475339
C       2.152156   -0.103339   -1.197907
C       2.915331   -0.574708    0.047335
C       2.803461   -2.095390    0.223489
C       1.335107   -2.540461    0.256550
C       0.575564   -2.055067   -0.985804
H       0.847572    1.905069    0.157382
H      -0.690716    1.853709   -0.739173
H      -0.673802    1.589905    1.016381
H       0.063509    0.955353   -2.676922
H       0.390103   -0.649215   -3.328742
H      -1.105259   -0.356036   -2.420450
H       2.611469   -0.537112   -2.096034
H       2.233942    0.983255   -1.315903
H       3.966554   -0.273534   -0.024951
H       2.503317   -0.077746    0.933836
H       3.317393   -2.594564   -0.610659
H       3.317477   -2.410620    1.138626
H       1.268203   -3.632033    0.327570
H       0.849750   -2.131103    1.149142
H      -0.482055   -2.333172   -0.922044
H       0.983671   -2.539098   -1.882289
