17

C      -0.263313    1.511879   -0.266540
C      -0.000249    0.027450   -0.180293
C       0.860546   -0.727874   -1.153648
N       1.858963    0.047849   -1.828095
C       2.736704    0.527044   -0.891772
C       3.922109    1.307998   -1.301097
O       4.177789    1.555110   -2.457060
N       2.492846    0.212585    0.340654
C       1.300891   -0.575887    0.340551
H       0.628302    2.072196   -0.553898
H      -1.041935    1.722701   -1.007447
H      -0.600896    1.898752    0.700033
H      -0.855489   -0.558563    0.147589
H       0.527478   -1.640618   -1.634507
H       2.120895   -0.062050   -2.793277
H       4.564942    1.620166   -0.456420
H       1.243300   -1.356532    1.090965
