14

C       0.055738   -1.222956   -0.058514
C       0.019931   -0.023402   -0.028249
C      -0.010560    1.427699    0.026050
C      -0.250856    2.109725    1.451832
C       1.117889    2.779618    1.313713
O       2.084542    1.730333    1.160488
C       1.380741    2.156218    0.011784
C      -0.905127    1.990711   -0.985669
N      -1.589044    2.470006   -1.784371
H       0.088184   -2.284305   -0.090551
H      -1.095483    2.798842    1.429046
H      -0.348116    1.405379    2.278309
H       1.461526    3.719727    1.725446
H       1.934059    2.467034   -0.865680
