21

C      -0.075869    1.599143    0.203247
C       1.267128    0.931254    0.027238
C       2.223774    0.881341    1.207662
C       3.214551   -0.262375    1.239470
C       3.010802   -1.561169    1.005798
C       1.721501   -2.258619    0.606182
C       0.501472   -1.880941    1.420267
C      -0.277484   -0.833224    1.152999
C      -0.002443    0.102414    0.023376
H      -0.314652    1.974265    1.194572
H      -0.478166    2.198199   -0.606261
H       1.752485    1.062889   -0.936035
H       2.783916    1.823925    1.232764
H       1.633949    0.865864    2.133963
H       4.227112    0.024952    1.517962
H       3.874024   -2.217879    1.096682
H       1.523497   -2.065915   -0.455923
H       1.878194   -3.339129    0.687916
H       0.270296   -2.516430    2.271866
H      -1.147311   -0.634437    1.776101
H      -0.316514   -0.259057   -0.954827
