14

C      -0.170346    1.557657   -0.100655
C       0.010753    0.055746   -0.052258
C       0.717942   -0.678024   -1.142042
N       1.298116   -0.597775    0.193869
C       2.500473    0.202569    0.364288
H       0.608767    2.057179   -0.681193
H      -1.132387    1.799572   -0.564891
H      -0.173509    1.989463    0.906590
H      -0.810104   -0.461481    0.444274
H       0.391361   -1.662746   -1.467712
H       1.166685   -0.069087   -1.927761
H       2.583405    1.067454   -0.312623
H       2.551437    0.568927    1.395026
H       3.371850   -0.437695    0.192019
