17

C      -0.067974    1.490434   -0.126202
C       1.477465    1.465898    0.011260
N       1.506960   -0.028796    0.222556
C      -0.009008   -0.029145   -0.004799
C       0.919540   -0.611525   -0.980979
C       1.187878   -0.308300   -2.454291
O       1.271856   -1.720702   -2.740659
C       1.100997   -2.078324   -1.349635
H      -0.556494    1.969757    0.723642
H      -0.499187    1.890668   -1.049195
H       2.063270    1.798060   -0.852075
H       1.850055    1.971484    0.903335
H      -0.674073   -0.644843    0.594107
H       0.379989    0.179863   -3.013965
H       2.134521    0.209314   -2.660633
H       1.997647   -2.544570   -0.923881
H       0.235481   -2.734573   -1.197530
