15

C       0.039362    1.482883    0.038621
C      -0.028906   -0.009171   -0.016744
C      -0.110769   -0.781086   -1.108274
C      -0.049069   -2.225082   -0.742109
O       1.188220   -2.598167   -0.083233
C       0.054273   -2.284568    0.725764
C       0.032989   -0.854203    1.249377
H       0.989990    1.818528    0.472424
H      -0.053343    1.927462   -0.955823
H      -0.754767    1.893924    0.675034
H      -0.168256   -0.422267   -2.129013
H      -0.493414   -3.004956   -1.352840
H      -0.335708   -3.103520    1.324467
H       0.922186   -0.627335    1.850563
H      -0.839195   -0.677554    1.893342
