20

O      -0.079936    1.450056    0.271086
C       0.090534    0.077536    0.138105
C      -0.464928   -0.859446    1.184167
C      -1.122459   -0.765733   -0.180073
N      -2.339737   -0.002458   -0.252519
C      -3.262891   -0.061500   -1.369681
C      -3.419763   -1.484247   -1.936279
C      -3.803257   -1.986930   -0.506773
C      -3.657245   -0.544094    0.009240
H      -1.035780    1.593171    0.182686
H       1.036067   -0.174004   -0.333071
H       0.074420   -1.768105    1.429402
H      -0.993023   -0.398122    2.011863
H      -1.007491   -1.608049   -0.857629
H      -3.503953    0.860552   -1.887305
H      -4.260232   -1.551096   -2.630168
H      -2.541028   -1.924530   -2.416459
H      -4.831437   -2.350660   -0.457982
H      -3.146253   -2.725217   -0.038775
H      -4.266896   -0.068061    0.769471
