22

C      -1.545036   -0.237791   -0.199229
C      -0.039976    0.014126    0.043058
C       0.235166    1.528578    0.177606
C       0.348818   -0.646205    1.301574
N       0.656346   -1.166490    2.287511
C       0.787824   -0.571609   -1.121973
C       2.340649   -0.593428   -1.051278
C       2.309452   -1.965091   -1.778471
C       0.816864   -2.105387   -1.373818
H      -1.851196    0.253965   -1.127871
H      -1.757819   -1.306049   -0.287523
H      -2.147892    0.164975    0.619083
H      -0.338110    1.960677    1.002188
H       1.295154    1.723196    0.358713
H      -0.056424    2.034809   -0.747942
H       0.463121   -0.050614   -2.030204
H       2.882359    0.227897   -1.525936
H       2.690164   -0.697302   -0.019646
H       2.429474   -1.855354   -2.859925
H       2.999345   -2.735143   -1.428010
H       0.708280   -2.663801   -0.439155
H       0.120549   -2.512471   -2.110535
