15

F       0.326779    0.088890    0.204489
C      -0.007606    1.370282    0.038815
F       1.112345    2.054717   -0.262141
F      -0.815706    1.450874   -1.031504
C      -0.654821    1.943655    1.260319
C      -0.801294    3.439925    1.576802
C      -0.594333    3.096566    3.091741
C      -0.446368    1.614682    2.710136
N      -1.611687    1.127230    1.982005
H       0.016204    4.039532    1.174050
H      -1.753676    3.890372    1.282381
H       0.322439    3.533717    3.492201
H      -1.419500    3.322821    3.773929
H       0.207348    0.880015    3.164662
H      -2.468781    1.631845    2.201428
