16

C       0.198923    1.102439    0.084752
C      -0.491795   -0.085010   -0.540381
O      -0.088749   -0.632765   -1.539856
C      -1.754179   -0.596889    0.182759
C      -1.526864   -2.020699    0.694858
O      -1.311645   -2.254420    1.853822
C      -1.571502   -3.102247   -0.391833
C      -1.188250   -4.426294    0.078059
N      -0.886103   -5.483501    0.429649
H       1.081574    1.374294   -0.494432
H      -0.490520    1.952563    0.141460
H       0.483764    0.858993    1.115244
H      -2.013359    0.032600    1.034383
H      -2.569197   -0.586779   -0.548783
H      -2.590212   -3.134843   -0.799834
H      -0.929025   -2.776030   -1.219500
