13

O       0.080646    1.365808    0.079225
C       0.056158    0.009672    0.054107
C       0.050710   -0.676222   -1.160086
F       0.070334    0.043323   -2.296142
C       0.025716   -2.063111   -1.193959
F       0.021488   -2.673006   -2.379513
C       0.005632   -2.794245   -0.015315
C       0.011092   -2.107991    1.197937
C       0.036083   -0.717737    1.242742
H       0.091651    1.682796   -0.832600
H      -0.013708   -3.875486   -0.067066
H      -0.004468   -2.669942    2.124816
H       0.040458   -0.178424    2.182025
