19

O      -0.040484    0.223895   -0.679906
C      -0.043988    1.283028   -0.125109
C      -1.159566    2.194824    0.421185
C      -0.047136    3.170670    0.862558
C       1.067442    2.256121    0.314604
C       0.002674    4.663594    0.770604
C      -1.349156    5.274350    1.159563
C      -1.262977    4.549731    2.544415
C       0.087455    3.951131    2.132398
H      -1.846962    2.558032   -0.350187
H      -1.749156    1.735629    1.221794
H       1.755544    1.832564    1.054105
H       1.657597    2.654810   -0.517569
H       0.784744    5.163369    0.209633
H      -1.312918    6.360908    1.262030
H      -2.196434    5.016538    0.515403
H      -1.181602    5.256394    3.372921
H      -2.055481    3.831572    2.779951
H       0.944930    3.817213    2.782706
