20

C       0.136975    1.491096    0.199806
C      -0.094226    0.000133   -0.078310
C       0.660844   -0.486587   -1.269303
C       2.104530   -0.783301   -1.563570
C       0.998816   -1.833669   -1.836180
C       0.586230   -1.389373   -3.244536
C       1.848539   -1.015173   -4.040352
C       2.034700   -0.013460   -2.887415
N       0.502337    0.053931   -2.694630
H       1.189261    1.690217    0.427342
H      -0.136353    2.088306   -0.675147
H      -0.464423    1.831404    1.047952
H       0.199595   -0.601497    0.791773
H      -1.165165   -0.184926   -0.235429
H       2.932458   -0.968472   -0.891007
H       0.991484   -2.809742   -1.367774
H      -0.300981   -1.819424   -3.709439
H       2.613682   -1.776214   -4.212341
H       1.593867   -0.504766   -4.973309
H       2.584068    0.921442   -2.999184
