21

C      -0.047693    1.488319    0.024135
C      -0.029702   -0.004315    0.107426
C      -1.035836   -0.874088    0.150624
C      -2.451341   -1.147157   -0.306647
C      -1.869697   -2.490340   -0.895487
C      -0.621473   -2.313659    0.042066
C       0.856003   -2.227996   -0.376235
C       1.288800   -0.802217    0.098445
O       2.302623   -0.218367   -0.707569
H       0.623126    1.852013   -0.761324
H      -1.055429    1.867437   -0.167484
H       0.306804    1.939497    0.960596
H      -3.148673   -1.344219    0.515009
H      -2.914913   -0.435832   -0.995204
H      -2.475645   -3.390737   -0.767036
H      -1.604384   -2.378184   -1.950175
H      -0.758555   -2.887562    0.966799
H       1.496488   -3.018563    0.024179
H       0.943840   -2.255194   -1.470596
H       1.743241   -0.840984    1.097872
H       1.972688   -0.196426   -1.613267
