19

C      -0.068212    1.539217    0.006931
C       0.034585    0.010825    0.002489
N       0.724949   -0.524461    1.162391
C       2.079335   -0.721065    1.267464
C       2.359028   -1.138182    2.547585
C       1.126233   -1.196979    3.263249
C       0.926588   -1.614994    4.689394
C       0.145349   -0.807570    2.377675
H       0.925965    1.995152    0.016580
H      -0.599188    1.887749   -0.884773
H      -0.610543    1.889381    0.889867
H      -0.964735   -0.435619   -0.031945
H       0.565832   -0.330381   -0.891976
H       2.724343   -0.550779    0.419275
H       3.336505   -1.392386    2.930368
H       1.493853   -0.982223    5.382403
H      -0.127685   -1.552070    4.975598
H       1.252871   -2.647658    4.862260
H      -0.921808   -0.713944    2.511417
