16

C      -0.271169    1.520109    0.074678
C      -0.002290    0.055397   -0.055518
C       0.065827   -0.623006   -1.211324
N       0.320821   -1.984394   -1.224189
C       0.523258   -2.752301   -0.094625
N       0.754434   -4.003168   -0.174212
C       0.451146   -2.008846    1.223517
O       0.613133   -2.581157    2.283894
N       0.193834   -0.664064    1.132986
H       0.555889    2.040506    0.574519
H      -0.404366    1.971853   -0.910368
H      -1.179239    1.714578    0.659728
H      -0.072692   -0.147825   -2.170894
H       0.369879   -2.482910   -2.099784
H       0.870358   -4.360556    0.775363
H       0.148451   -0.180234    2.019263
