17

C       0.048356    1.491156    0.128306
C       0.007501   -0.020261    0.008263
O       0.685754   -0.566247    1.148536
C       0.755835   -1.913351    1.227873
C       1.501182   -2.276064    2.489361
O       1.724116   -3.406497    2.840242
N       0.254245   -2.672012    0.348294
C       0.335756   -4.120797    0.443482
H       1.079781    1.854397    0.147067
H      -0.461060    1.944524   -0.727134
H      -0.450566    1.824626    1.042639
H      -1.017522   -0.406584   -0.013261
H       0.501318   -0.376873   -0.902457
H       1.831930   -1.394218    3.076214
H      -0.162683   -4.549845   -0.429581
H       1.371437   -4.477372    0.467112
H      -0.149413   -4.504142    1.347970
