23

C      -0.687053    1.180575   -0.049366
C       0.174739   -0.070857   -0.119798
C       1.608659    0.007310   -0.705702
C       2.039514   -1.070500    0.320248
C       0.775054   -0.738764    1.169025
C       1.043222    0.185693    2.381763
C       0.009325   -0.283944    3.409986
O      -0.078585   -1.685333    3.208729
C      -0.044036   -1.889442    1.802856
H      -0.160560    2.015934    0.423815
H      -0.972903    1.506489   -1.055775
H      -1.611176    1.003863    0.513193
H      -0.380276   -0.850879   -0.657614
H       1.737211   -0.212430   -1.768405
H       2.073752    0.975568   -0.492890
H       1.988738   -2.078519   -0.103646
H       3.009545   -0.948866    0.810079
H       2.050333    0.000896    2.770089
H       0.964997    1.251336    2.154642
H       0.299536   -0.108104    4.449267
H      -0.967326    0.200268    3.236569
H      -1.068427   -1.887286    1.392415
H       0.390970   -2.877074    1.618831
