18

C       0.117634    1.540192   -0.120999
C      -0.170163    0.073858   -0.388680
O       1.059406   -0.563063   -0.743132
C       0.951527   -1.898742   -1.046532
C       1.263471   -2.399786   -2.287814
O       1.681805   -1.782821   -3.420195
N       1.118345   -3.755532   -2.253938
C       0.702646   -4.138111   -0.990554
C       0.594223   -3.008004   -0.218691
H       0.842527    1.646635    0.690959
H       0.529292    2.023371   -1.012178
H      -0.801349    2.062132    0.161972
H      -0.594079   -0.407814    0.503497
H      -0.898236   -0.048235   -1.203908
H       1.787069   -0.850886   -3.192133
H       1.306980   -4.364423   -3.030181
H       0.522411   -5.174574   -0.761180
H       0.298727   -2.972168    0.818113
