15

C      -0.008917    1.484357   -0.142162
O       1.403026    1.554415    0.134641
C       1.447306    0.171383    0.535111
C       0.005280   -0.051593    0.026547
N      -0.952583   -0.645994    0.933799
N      -1.724935   -1.676158    0.597151
C      -2.412220   -1.860309    1.716722
N      -2.074157   -0.984227    2.689803
N      -1.144112   -0.217899    2.176251
H      -0.610361    1.998541    0.615856
H      -0.257363    1.860613   -1.139657
H       2.235316   -0.386862    0.019656
H       1.548109    0.052413    1.619729
H      -0.071486   -0.614860   -0.900355
H      -3.159175   -2.628437    1.833062
