23

C       0.162734    1.440490    0.180757
C      -0.141899   -0.061841    0.001518
C      -1.586266   -0.299003   -0.053954
C      -2.773816   -0.477687   -0.117220
C       0.549788   -0.615699   -1.241217
C       1.996608   -1.054013   -1.197103
C       0.902675   -2.074127   -1.434765
C       0.605015   -3.089073   -0.345775
C       0.752683   -2.631515   -2.838810
H       1.242908    1.597166    0.253519
H      -0.212273    2.013546   -0.672523
H      -0.311712    1.830408    1.085173
H       0.250162   -0.585259    0.882580
H      -3.821354   -0.644000   -0.164856
H       0.240733   -0.098747   -2.147260
H       2.648962   -0.779501   -2.019841
H       2.488355   -1.061219   -0.228266
H       0.793842   -2.696318    0.656700
H      -0.440514   -3.414721   -0.384632
H       1.236137   -3.976684   -0.470877
H       1.429360   -3.479244   -3.000330
H      -0.270359   -2.984570   -3.013839
H       0.978815   -1.875419   -3.597226
