18

C       0.010842    1.265379    0.095802
C      -0.073708   -0.239009   -0.222119
C       0.689717   -0.613649   -1.407292
C       1.335813   -0.904904   -2.382437
C       2.078089   -1.246856   -3.564968
C       3.331294   -2.092161   -3.469227
N       2.124996   -2.633183   -4.038267
C       1.414547   -3.683123   -3.470587
O       1.914768   -4.685221   -3.025581
H       1.046036    1.567641    0.274969
H      -0.376507    1.861137   -0.734973
H      -0.576184    1.496427    0.989212
H       0.288142   -0.818327    0.636647
H      -1.123552   -0.527551   -0.360445
H       2.033587   -0.515669   -4.369506
H       4.147028   -1.903592   -4.161385
H       3.617344   -2.452195   -2.485279
H       0.323398   -3.522674   -3.543043
