13

O      -0.094244    1.471100   -0.038280
C      -0.025379    0.063836    0.024222
C       0.205166   -0.640368    1.394955
N      -1.092050   -1.397658    1.278811
C      -2.134153   -0.358854    1.236933
C      -1.379264   -0.621066   -0.003656
H       0.803354    1.818072   -0.060034
H       0.646474   -0.335727   -0.745873
H       1.050749   -1.331303    1.408767
H       0.253056    0.021116    2.266264
H      -3.139231   -0.764771    1.295007
H      -1.981262    0.572650    1.776276
H      -1.827901   -1.092970   -0.871276
