20

C       0.038358    1.533273   -0.148103
C      -0.025412    0.022733    0.103697
C       0.725732   -0.438927    1.331032
C       0.543303    0.155876    2.758336
C       1.932070   -0.465891    3.045971
C       1.811979   -1.974266    2.750492
C       0.950331   -1.956871    1.538594
N       2.446317   -1.918162    1.388073
C       2.285598   -0.398657    1.525611
H       1.073872    1.875528   -0.250578
H      -0.490792    1.797420   -1.068510
H      -0.419196    2.097141    0.670956
H      -1.075652   -0.289053    0.193963
H       0.372735   -0.510992   -0.769371
H       0.587558    1.249735    2.752813
H      -0.311235   -0.179196    3.354974
H       2.583669   -0.127950    3.848694
H       1.945594   -2.823752    3.409277
H       0.359605   -2.789764    1.174396
H       2.988131    0.281015    1.047072
