17

O      -0.107454    1.348253    0.046734
N       0.039469   -0.047932    0.043785
C      -1.086548   -0.624919   -0.025666
C      -2.548117   -0.189092   -0.045369
C      -2.928416   -1.701745   -0.069000
C      -2.967098   -2.414972   -1.430356
C      -1.944367   -1.947990   -2.385025
N      -1.515931   -2.878149   -1.322594
C      -1.427697   -2.103261   -0.006542
H       0.805373    1.650157    0.115334
H      -2.840664    0.326436    0.875020
H      -2.863866    0.422092   -0.895906
H      -3.649514   -2.056943    0.663773
H      -3.748726   -3.108390   -1.725592
H      -1.937855   -2.422123   -3.362239
H      -1.586278   -0.923397   -2.387920
H      -0.982884   -2.724848    0.769478
