14

O       0.162318    1.145122   -0.034059
C      -0.140758   -0.196020    0.040096
C      -0.707006   -0.790231    1.271411
O      -1.256238    0.154249    2.176047
C      -2.326187    0.715249    1.525612
N      -2.620257    0.294013    0.366046
C      -1.624364   -0.678893    0.026021
C      -1.968414   -1.812792   -0.852352
O      -1.214796   -2.734231   -1.069404
H       0.235151    1.490440    0.863839
H       0.492318   -0.849523   -0.553759
H      -0.368114   -1.710078    1.731436
H      -2.841905    1.483178    2.087272
H      -2.976276   -1.745989   -1.311342
