21

C      -0.035216    1.567120   -0.074168
C       0.004794    0.044373   -0.000528
C      -1.378288   -0.579289   -0.191750
C       1.058365   -0.656457   -0.896098
N       2.395164   -0.175156   -0.479484
C       1.732442   -1.272018    0.278797
C       0.766600   -0.585030    1.218057
C       0.990030   -0.047510    2.572215
N       0.168583   -1.263565    2.361008
H       0.973394    1.979009    0.000139
H      -0.478436    1.900829   -1.019832
H      -0.643219    1.985499    0.736728
H      -1.798146   -0.292229   -1.162352
H      -1.336441   -1.672362   -0.149392
H      -2.079837   -0.236176    0.577516
H       0.889804   -1.058149   -1.888668
H       3.076449   -0.612033   -1.100290
H       2.195418   -2.243195    0.400747
H       1.935363   -0.214594    3.081196
H       0.486179    0.876913    2.844105
H      -0.820276   -1.034809    2.434654
