17

C       0.095271    1.461114    0.009886
N       0.013724    0.014314    0.002007
C      -0.012468   -0.819877   -1.090804
C      -0.007464   -0.356710   -2.506117
N      -0.046633   -2.069319   -0.699674
N      -0.038122   -2.077230    0.680464
C       0.000953   -0.832346    1.085423
C       0.023451   -0.385339    2.505748
H       1.134814    1.807881    0.007296
H      -0.408186    1.865375   -0.870535
H      -0.400478    1.855424    0.899171
H       0.891438    0.221825   -2.748040
H      -0.036549   -1.236057   -3.150866
H      -0.877055    0.269501   -2.738135
H       0.925311    0.190476    2.743116
H      -0.843151    0.238162    2.755572
H       0.002255   -1.271955    3.140776
