23

C       0.181248    1.582670    0.131644
C       0.167193    0.054433    0.053106
C       0.533826   -0.471250   -1.344550
C       0.564624   -1.966370   -1.429801
O       1.660609   -2.652568   -0.796697
C       1.417399   -2.896445   -2.190950
C       0.309710   -3.949524   -2.278261
C      -0.616648   -2.973155   -1.460558
C      -1.169834   -3.462916   -0.129433
H       1.172265    1.982325   -0.111018
H      -0.533373    2.023713   -0.572567
H      -0.081623    1.932073    1.134842
H       0.871325   -0.364712    0.780982
H      -0.825541   -0.317961    0.334608
H      -0.182595   -0.087006   -2.083136
H       1.521279   -0.088331   -1.630610
H       2.239465   -2.703851   -2.872134
H      -0.050375   -4.125273   -3.294894
H       0.545665   -4.905733   -1.803502
H      -1.419603   -2.594024   -2.101938
H      -0.351374   -3.766905    0.529067
H      -1.748624   -2.684153    0.378665
H      -1.830310   -4.324800   -0.274029
