23

C       0.277969    1.719753    0.220046
C       0.056175    0.202994    0.079384
C       0.512194   -0.380172   -1.279058
C      -0.302579   -0.006779   -2.535901
C       0.238773   -0.806574   -3.732158
C      -1.805765   -0.265677   -2.361369
O      -0.070986    1.390623   -2.765510
C       0.840255   -0.505199    1.168745
O       0.371790   -1.231066    2.007253
H       1.341912    1.966909    0.126630
H      -0.251089    2.260663   -0.563739
H      -0.066627    2.071640    1.197724
H      -0.995329   -0.043573    0.256020
H       1.553290   -0.088209   -1.464845
H       0.500707   -1.474470   -1.204905
H       0.085496   -1.882357   -3.600321
H      -0.275070   -0.508489   -4.653673
H       1.308224   -0.619379   -3.864289
H      -2.229786    0.379306   -1.588418
H      -2.336207   -0.060547   -3.298655
H      -2.004039   -1.307926   -2.091573
H      -0.567229    1.643960   -3.551300
H       1.938440   -0.299055    1.140372
