23

C      -0.125584    1.535770   -0.056210
C       0.009052    0.010205   -0.043463
C       0.799578   -0.529333    1.150749
C       0.836498   -2.074441    1.256185
C       2.202337   -2.373470    1.837742
C       2.571222   -3.745458    2.306288
C       2.972321   -1.280574    1.845938
C       2.299277   -0.091988    1.209450
O       2.881743    0.221652   -0.062012
H       0.855961    2.009690   -0.141353
H      -0.734180    1.870788   -0.902147
H      -0.603772    1.900275    0.860417
H      -0.988187   -0.448791   -0.037855
H       0.495018   -0.316808   -0.970478
H       0.336865   -0.151618    2.071997
H       0.024597   -2.465167    1.881852
H       0.718470   -2.561722    0.276358
H       2.466885   -4.479720    1.497069
H       3.599615   -3.787316    2.674919
H       1.904599   -4.078706    3.111806
H       4.002286   -1.244596    2.186180
H       2.417660    0.831919    1.784362
H       3.034948   -0.613126   -0.518006
