15

N       0.038725   -1.110074   -0.012900
C      -0.001391    0.045969    0.002122
C      -0.069464    1.480932    0.027537
C      -1.094754    2.266310    0.896766
C      -0.834561    3.421279   -0.099054
C       0.682400    3.700534   -0.073905
C       1.233907    2.321361    0.005705
N       0.997317    2.945619   -1.336535
C      -0.424103    2.398596   -1.206409
H      -2.100063    1.849706    0.790214
H      -0.852881    2.415283    1.951712
H      -1.528762    4.243564   -0.248410
H       1.218863    4.597324    0.208675
H       2.219565    2.040392    0.352637
H      -0.995269    2.091458   -2.078317
