14

C      -0.589548    1.730775    0.156231
N      -0.887512    0.373388    0.565302
C      -0.253229   -0.558692   -0.009147
N      -0.486324   -1.883270    0.323534
C       0.224450   -2.936421   -0.239412
N      -0.146927   -4.174285    0.248254
O       1.111985   -2.777540   -1.052058
H       0.175974    1.800553   -0.632642
H      -1.503523    2.216050   -0.206105
H      -0.246569    2.309836    1.021736
H       0.505783   -0.445837   -0.788646
H      -1.147398   -2.039909    1.069816
H      -1.085806   -4.309832    0.589490
H       0.227613   -4.942261   -0.286647
