18

C       1.027632   -1.041593   -0.510907
C      -0.001927   -0.036976   -0.900029
N       0.668559    0.041786    0.398258
C      -0.078183   -0.275134    1.614428
C      -0.903796    0.912782    2.085039
C      -2.138263    0.568489    2.452914
C      -2.352304   -0.893943    2.221028
O      -2.269497   -1.262593    0.824763
C      -1.106268   -1.424884    1.647600
H       0.676867   -2.047259   -0.289276
H       2.032915   -0.994141   -0.921136
H       0.255667    0.760114   -1.592532
H      -1.035776   -0.362120   -0.925460
H       0.682273   -0.514364    2.373987
H      -0.493392    1.915410    2.065980
H      -2.905646    1.233101    2.829823
H      -3.044379   -1.488157    2.809477
H      -0.781757   -2.451623    1.791495
