16

C       0.310254    1.391445   -0.050919
N      -0.081389   -0.017265   -0.014022
C      -0.486654   -0.589186    1.174008
O      -0.498012   -0.024450    2.243032
C      -0.012046   -0.780954   -1.171351
C       0.490305   -2.017905   -1.439526
C       0.194156   -2.272752   -2.819681
C      -0.440777   -1.167539   -3.283118
O      -0.586934   -0.247674   -2.286574
H       1.352933    1.488808   -0.368628
H      -0.326513    1.948387   -0.742777
H       0.194580    1.783635    0.958893
H      -0.801398   -1.637492    1.027390
H       1.025320   -2.651671   -0.751164
H       0.442367   -3.155701   -3.387075
H      -0.824216   -0.873899   -4.245713
