20

C      -0.165527    1.542038    0.053350
C       0.029920    0.041731   -0.044269
C       0.832256   -0.657554   -1.179329
C       2.095072   -0.142041   -0.452230
N       1.215117   -0.605774    0.730877
C       0.934091   -1.802980   -0.165730
C       0.104040   -3.007403    0.146902
C       1.602535   -3.120632   -0.151035
O       2.091317   -3.735664   -1.310079
H       0.698688    2.129228   -0.263732
H      -1.016510    1.840392   -0.568600
H      -0.398309    1.816156    1.087609
H      -0.904289   -0.465513    0.216836
H       0.614180   -0.699672   -2.253684
H       3.010709   -0.727207   -0.557132
H       2.309526    0.926451   -0.456509
H      -0.223453   -3.173936    1.168700
H      -0.586987   -3.361138   -0.614178
H       2.245292   -3.356261    0.691652
H       1.653564   -3.343236   -2.072199
