17

C       0.069941    1.382612    0.109680
N       0.013041   -0.068735    0.116871
C      -1.136232   -0.629976   -0.006462
C      -2.441309   -0.018332   -0.158261
C      -3.516257   -0.814945   -0.271131
O      -3.482883   -2.154872   -0.254913
N      -2.254135   -2.823427   -0.111478
C      -1.186914   -2.107724    0.001314
C       0.090837   -2.877839    0.150460
H       1.108580    1.702261    0.223031
H      -0.312424    1.811443   -0.828856
H      -0.509676    1.827841    0.932321
H      -2.568872    1.054740   -0.182584
H      -4.536541   -0.465030   -0.388512
H      -0.110325   -3.949395    0.136714
H       0.780404   -2.610745   -0.655227
H       0.585701   -2.596656    1.084292
