19

C      -0.339330    1.275307   -0.020874
O      -0.072654   -0.106563    0.005688
C       0.750431   -0.535074    1.082828
C      -0.034208   -0.616090    2.400650
C       1.327113   -1.864298    0.689695
C       1.094888   -2.538079   -0.468009
O       1.781742   -3.713404   -0.488854
C       2.468150   -3.788245    0.679711
C       2.231934   -2.690751    1.442899
H       0.588775    1.868257   -0.035905
H      -0.898284    1.475579   -0.938435
H      -0.946371    1.608473    0.833443
H       1.574482    0.189158    1.211889
H       0.609701   -0.974707    3.209140
H      -0.421598    0.363988    2.693557
H      -0.872426   -1.309696    2.291089
H       0.494120   -2.319079   -1.332483
H       3.070709   -4.671161    0.815389
H       2.649668   -2.487497    2.416973
