20

N      -0.079216    1.297923   -0.634185
C      -0.017925    0.127737   -0.151701
C      -1.281941   -0.693530   -0.011139
C      -1.902664   -0.692543    1.402701
C      -1.164249   -1.450456    2.519137
C       0.215308   -0.897070    2.914790
O       1.338691   -1.514522    2.286825
C       1.303174   -1.635983    0.905618
O       1.192439   -0.388943    0.236300
H       0.852022    1.720591   -0.640063
H      -1.992882   -0.222604   -0.692053
H      -1.135233   -1.720647   -0.362643
H      -2.032559    0.352243    1.710889
H      -2.911211   -1.112404    1.314498
H      -1.798404   -1.405962    3.412250
H      -1.069081   -2.517030    2.278744
H       0.246741    0.188942    2.746602
H       0.392846   -1.065969    3.979866
H       2.273892   -2.044773    0.617215
H       0.508072   -2.312991    0.572527
