18

C      -0.114911    1.298430    0.144984
N      -0.110218   -0.131477   -0.126943
C      -0.051968   -1.013442    1.027082
C      -1.389754   -1.106382    1.748521
O      -1.506342   -1.229437    2.937880
C      -0.005857   -0.670290   -1.375729
O       0.065785   -1.877499   -1.569653
C       0.021810    0.266202   -2.591541
O       0.142748   -0.487623   -3.758503
H       0.869892    1.647344    0.482386
H      -0.401829    1.864374   -0.739933
H      -0.840872    1.523667    0.932871
H       0.199255   -2.014060    0.658421
H       0.718820   -0.692715    1.736413
H      -2.270961   -1.065757    1.067457
H      -0.900544    0.869171   -2.608266
H       0.861909    0.971161   -2.488136
H       0.168401   -1.410374   -3.451793
