20

C      -0.045230    1.560992   -0.072195
C       1.446970    2.013759   -0.063140
C       2.259748    0.700163    0.023478
C       1.339792   -0.309427   -0.677977
C       0.010194    0.013217    0.030667
C       0.143511   -0.459487    1.491716
C       1.329914    0.235992    2.176836
O       2.497890    0.279163    1.368044
H      -0.624312    2.007218    0.742222
H      -0.532166    1.855763   -1.006708
H       1.703586    2.539045   -0.987728
H       1.693387    2.683899    0.764442
H       3.252990    0.785800   -0.423244
H       1.283430   -0.098245   -1.752387
H       1.676027   -1.340693   -0.540668
H      -0.856969   -0.459412   -0.438848
H      -0.769311   -0.247456    2.061454
H       0.289541   -1.546109    1.503923
H       1.036199    1.256254    2.470345
H       1.619566   -0.288217    3.092436
