21

C      -0.462259    1.132233    0.250624
O       0.425198    0.091270   -0.109674
C       0.920107   -0.596758    0.999472
C       0.154814   -1.682415    1.691469
C      -0.669126   -2.487028    0.676323
C       0.648369   -2.869915   -0.079397
C       0.755963   -2.642750   -1.582394
O      -0.034998   -3.575438   -2.313363
C       1.452165   -1.982850    0.884542
H       0.037495    1.888725    0.874562
H      -0.799580    1.604501   -0.674737
H      -1.333277    0.751027    0.802354
H       1.496006    0.038251    1.677164
H       0.002181   -1.689412    2.764434
H      -1.175199   -3.349408    1.113038
H      -1.398809   -1.900254    0.107430
H       0.876309   -3.921872    0.118541
H       0.495914   -1.607486   -1.831897
H       1.789318   -2.812492   -1.906647
H      -0.958096   -3.375917   -2.128747
H       2.444800   -2.223633    1.248988
