14

N      -0.130964   -0.680034   -1.139314
C       0.008997    0.157776   -0.357405
C       0.173833    1.224280    0.640057
C       1.413441    1.977729    0.470730
C       2.440126    2.591173    0.332656
C       3.651323    3.344467    0.173116
C       4.514355    3.112919   -1.025609
N       3.759991    4.362621   -0.900848
H      -0.698127    1.888649    0.578178
H       0.138582    0.768729    1.638221
H       4.132398    3.647434    1.099442
H       5.590794    3.213444   -0.922925
H       4.184554    2.364905   -1.740123
H       2.925979    4.319463   -1.482014
