19

C       0.061776    1.518146    0.207776
C      -0.031995    0.006865   -0.068347
C      -1.436987   -0.515797   -0.068129
C      -2.093359   -1.049084   -1.106415
C      -3.514346   -1.417374   -0.775710
O      -3.926747   -2.682770   -1.237637
C      -3.485675   -1.351451    0.760961
O      -4.224079   -1.992832    1.463302
C      -2.299894   -0.487409    1.181409
H       1.104661    1.848022    0.196163
H      -0.483521    2.088859   -0.550407
H      -0.356355    1.774544    1.186386
H       0.435096   -0.220792   -1.032814
H       0.549069   -0.527677    0.696545
H      -1.682513   -1.179787   -2.101043
H      -4.209317   -0.635838   -1.140938
H      -4.482793   -3.049771   -0.535651
H      -1.813100   -0.887405    2.078322
H      -2.647134    0.523555    1.437227
