22

C      -0.255106    1.550208   -0.040512
C       0.210333    0.093119    0.032641
N       0.808966   -0.379694   -1.194314
C       0.264416   -0.629415   -2.531838
C       1.691026   -1.123947   -2.953408
C       1.788985   -2.608482   -3.298106
C       2.409041   -0.242404   -3.973103
C       2.079706   -0.808522   -1.482777
O       3.078661   -0.893369   -0.812807
H       0.584371    2.215021   -0.263607
H      -1.014965    1.686662   -0.816831
H      -0.694291    1.856926    0.913748
H       0.976311   -0.027087    0.805242
H      -0.633242   -0.556746    0.304699
H      -0.520012   -1.395529   -2.555082
H      -0.089336    0.268872   -3.050055
H       1.367700   -2.810274   -4.289175
H       2.835927   -2.927354   -3.302958
H       1.255843   -3.226405   -2.568505
H       2.311290    0.819281   -3.724561
H       3.476483   -0.482753   -3.996801
H       2.003993   -0.395848   -4.979604
