19

C       0.028248    1.487818    0.154183
C      -0.071412   -0.041561    0.003772
C      -1.474518   -0.464408   -0.067433
N      -2.578248   -0.799217   -0.148771
C       0.685343   -0.566521   -1.227955
C       2.257308   -0.447764   -1.236330
C       2.325739   -1.970443   -1.383900
N       1.645860   -2.521896   -0.187767
C       0.842872   -2.088556   -1.357545
H       1.077278    1.784523    0.236419
H      -0.407202    1.995746   -0.711442
H      -0.497426    1.829832    1.049073
H       0.368240   -0.525372    0.883611
H       0.260622   -0.133778   -2.137827
H       2.625612    0.098501   -2.106502
H       2.724132   -0.053178   -0.329923
H       3.060508   -2.553916   -1.923917
H       1.716075   -3.537649   -0.234492
H       0.178864   -2.778192   -1.862701
