19

C      -0.125810    1.480280    0.047578
C       0.005739   -0.010771    0.071381
O      -1.223673   -0.753721    0.209527
C      -0.342790   -1.874819    0.509483
C       0.750847   -0.905870    1.094272
C       1.991293   -0.936014    0.185755
C       0.961229   -0.790784   -0.965760
C       0.229401   -2.142137   -0.908318
O       1.121224   -3.229242   -1.044281
H       0.859794    1.954645    0.015897
H      -0.684759    1.799654   -0.838627
H      -0.657342    1.835420    0.935394
H      -0.814058   -2.681673    1.071251
H       0.758685   -0.722193    2.167712
H       2.590744   -0.031709    0.321668
H       2.632469   -1.816320    0.174686
H       1.228265   -0.387939   -1.941350
H      -0.598052   -2.203081   -1.625154
H       0.607914   -4.040805   -0.986006
