11

F       0.108544    0.073279   -0.090192
C      -0.076041    1.356045    0.052242
C      -1.244642    1.975512   -0.136010
C      -1.295928    3.407667    0.060134
O      -2.234262    4.132510   -0.058749
O      -0.065882    3.995158    0.437914
C       1.087542    3.334427    0.616356
N       2.135776    3.926263    0.951412
O       1.062300    1.948140    0.409209
H      -2.136132    1.442799   -0.425812
H       2.913950    3.278162    1.042438
