18

O      -0.036603    1.447167   -0.282400
C       0.079837    0.064993    0.032144
C      -1.309533   -0.529097    0.000828
C      -2.069746   -0.685815   -1.330888
C      -1.308854   -1.668670   -2.233373
C      -0.894330   -2.709299   -1.169065
C      -2.230341   -2.783234   -1.841898
N      -2.825885   -1.903823   -0.749972
C      -1.524700   -2.053362    0.069847
H       0.844776    1.831695   -0.279014
H       0.721634   -0.456435   -0.695471
H       0.525444   -0.082509    1.029687
H      -1.960112   -0.033321    0.728911
H      -2.649671    0.121066   -1.776127
H      -0.754255   -1.509969   -3.148514
H      -0.024171   -3.343838   -1.273303
H      -2.750243   -3.555565   -2.394065
H      -1.565675   -2.604064    1.009960
