15

O      -0.054180   -0.031036    0.237236
C      -0.064823    1.144445   -0.028361
C      -1.247719    2.080621   -0.094718
C      -0.666427    3.295741   -0.254855
C      -0.018498    4.238559    0.709761
C       1.236634    4.362841   -0.098106
C       1.260128    3.290513    0.960495
C       1.163446    2.102109   -0.069517
C       0.665290    3.239278   -1.014271
H      -2.121075    1.854211    0.506117
H      -0.390532    4.832468    1.534688
H       1.900015    5.192721   -0.290745
H       1.746805    3.300518    1.928440
H       2.125421    1.616714   -0.246598
H       0.706583    3.177202   -2.097684
