19

O       0.850479    0.130037   -1.021212
C       0.046003    0.008983    0.149672
C      -1.281836   -0.517526   -0.183373
C      -2.343680   -0.994773   -0.485301
C       0.736100   -0.835723    1.249900
C       2.132819   -0.243110    1.587076
C       1.895341    0.506895    2.875479
C       0.712201    0.218059    3.413698
C      -0.061198   -0.779146    2.584072
H       0.836309   -0.723096   -1.469806
H      -0.056323    1.035395    0.524324
H      -3.290808   -1.395518   -0.750880
H       0.811745   -1.860667    0.873033
H       2.880125   -1.035794    1.729045
H       2.506270    0.386429    0.773197
H       2.632589    1.177116    3.303823
H       0.333246    0.614135    4.349427
H      -1.107182   -0.491863    2.426798
H      -0.090599   -1.760819    3.075698
