18

C       0.498983    0.332016   -0.466441
N       0.045437   -0.252568    0.789983
C       0.134924    0.704033    1.883722
C      -1.292705   -0.823441    0.680216
C      -1.288468   -2.067602   -0.154990
N      -2.167425   -2.305538   -1.091437
O      -1.855380   -3.536819   -1.598421
N      -0.760996   -4.068367   -0.974351
C      -0.401640   -3.182525   -0.089539
H       1.536951    0.661210   -0.362521
H       0.457151   -0.411839   -1.266492
H      -0.108989    1.201866   -0.778133
H      -0.514809    1.588571    1.744790
H      -0.143766    0.221916    2.825889
H       1.166336    1.057300    1.974747
H      -1.628109   -1.086693    1.690678
H      -2.038923   -0.120416    0.268907
H       0.451951   -3.336929    0.550767
