14

C      -0.031809    1.547100    0.026995
C       0.003909    0.051410   -0.008893
C      -0.038736   -0.777822   -1.094847
N       0.020811   -2.072793   -0.626446
C       0.003836   -3.227193   -1.419848
O       0.055817   -4.349361   -1.009375
N       0.101140   -2.117736    0.731300
C       0.090569   -0.852398    1.097254
H       0.861805    1.957084    0.510067
H      -0.087081    1.965786   -0.981098
H      -0.898377    1.913473    0.588252
H      -0.105249   -0.569412   -2.151408
H      -0.065282   -2.953051   -2.489388
H       0.145668   -0.602467    2.148464
