18

C      -0.048049    1.528167    0.284276
C       0.007101    0.048737   -0.124514
C      -1.348466   -0.582192   -0.181720
O      -2.039541   -0.848641    1.038628
C      -1.871224   -1.929379    0.110856
C      -2.999117   -1.807938   -0.917769
C      -2.447597   -0.371716   -1.268869
C      -3.337220    0.766282   -1.105039
N      -4.041786    1.674161   -0.978037
H       0.958189    1.954415    0.320990
H      -0.638834    2.117848   -0.423289
H      -0.504165    1.637219    1.271991
H       0.488438   -0.056246   -1.104769
H       0.613234   -0.517298    0.591469
H      -1.367613   -2.818716    0.470922
H      -2.914887   -2.492827   -1.763326
H      -4.007838   -1.844428   -0.503910
H      -2.015834   -0.354995   -2.273236
