18

O       0.187267    0.099527    0.316210
C       0.107061    1.261881   -0.105777
O       0.930407    2.064776   -0.576970
C      -1.329858    1.888789    0.050396
C      -1.699674    3.108499   -0.757011
C      -1.380614    3.248367    0.696105
N      -2.551717    3.254769    1.637575
H      -2.194450    3.136608    2.586822
H      -3.086657    4.125449    1.621404
C      -3.430347    2.053259    1.268893
C      -2.456340    1.055380    0.632159
H      -0.900143    3.447264   -1.407768
H      -2.714575    3.275530   -1.109578
H      -0.511040    3.768677    1.076008
H      -3.942601    1.717413    2.172651
H      -4.172734    2.427420    0.562978
H      -2.976122    0.453255   -0.117725
H      -2.012063    0.366856    1.355510
