14

N      -0.087454    1.278323    0.009928
N       1.057349    1.961180    0.002587
H       0.925490    2.961328    0.009267
C       2.316761    1.448478   -0.012336
C       2.516003    0.090542   -0.021617
C       1.372299   -0.721108   -0.014990
C       1.053902   -2.066476   -0.019210
C      -0.368572   -2.103455   -0.005700
N      -0.972293   -0.911253    0.006507
C       0.061222   -0.029137    0.001418
H       3.112690    2.181320   -0.016042
H       3.524298   -0.305933   -0.033486
H       1.724628   -2.912321   -0.030262
H      -0.967674   -3.008487   -0.004857
