20

C       0.984803    1.070179    0.624914
C       0.315268    0.363470   -0.541886
O       0.611736   -1.018894   -0.451423
C      -0.034374   -1.827540   -1.414158
C       0.641654   -1.795278   -2.781878
C       2.032700   -2.486611   -2.888271
N       1.410250   -3.444274   -3.808324
C       0.155744   -2.887946   -3.775114
O      -0.885342   -3.172338   -4.304026
H       0.616989    0.672711    1.574905
H       2.068403    0.925586    0.590079
H       0.776541    2.143689    0.590685
H      -0.776458    0.514804   -0.512936
H       0.673406    0.783834   -1.495230
H      -0.005791   -2.848938   -1.017656
H      -1.092286   -1.543749   -1.523050
H       0.613524   -0.794678   -3.220280
H       2.824665   -1.881051   -3.339296
H       2.394420   -2.927298   -1.954092
H       1.773669   -4.243145   -4.306491
