20

C      -0.077430    1.585623   -0.100554
C       0.027519    0.056226   -0.024331
C       0.725853   -0.498841   -1.268061
O      -0.044713   -0.152768   -2.410097
C       0.750044   -0.438213    1.239023
C       0.010412   -0.105498    2.551850
C       0.676397   -0.656246    3.726023
C       1.245964   -1.122085    4.676694
H       0.915131    2.047246   -0.024900
H      -0.517010    1.884488   -1.054476
H      -0.698384    1.995252    0.701271
H      -0.989631   -0.361436   -0.027535
H       1.744616   -0.080819   -1.334324
H       0.824690   -1.592408   -1.177762
H       0.434088   -0.435095   -3.194306
H       0.878753   -1.525739    1.186617
H       1.759131   -0.009279    1.283750
H      -0.081552    0.980814    2.667318
H      -1.015666   -0.493501    2.498809
H       1.739069   -1.528214    5.524539
