22

C      -0.073905    1.578682    0.083673
C       0.023452    0.075202    0.066854
C      -1.252836   -0.802466    0.205654
C      -0.321110   -1.885500    0.743448
C       0.700489   -0.887600    1.131898
N       1.007688   -1.838106    0.033553
C       0.888497   -0.714510   -0.970220
C       0.301846   -1.119559   -2.318720
C       2.274201   -0.100118   -1.158203
H       0.913210    2.051848    0.076696
H      -0.623549    1.941574   -0.793193
H      -0.606892    1.931026    0.973445
H      -1.893413   -0.427332    1.009565
H      -1.862972   -0.988189   -0.683290
H      -0.572405   -2.826719    1.214544
H       1.307022   -0.748981    2.017545
H      -0.612039   -1.707212   -2.217794
H       0.077826   -0.236038   -2.927302
H       1.024857   -1.729630   -2.870295
H       2.953148   -0.833147   -1.604259
H       2.226849    0.769418   -1.822197
H       2.705979    0.220265   -0.205582
