21

C      -0.085354    1.578205   -0.055868
C       0.063891    0.074663    0.055686
C       1.352654   -0.694313   -0.224291
C       2.624488    0.081927   -0.118701
C       2.830731    0.527205    1.121823
C       1.745761    0.059491    2.077286
O       1.183524    1.081239    2.894317
C       0.749561   -0.691706    1.171171
C       0.054590   -1.887386    1.778417
H       0.847268    2.107344    0.157787
H      -0.387276    1.857812   -1.071408
H      -0.860789    1.948811    0.624743
H      -0.817065   -0.452809   -0.306441
H       1.304899   -1.564599   -0.871108
H       3.264533    0.276836   -0.972708
H       3.649023    1.155560    1.454894
H       2.164269   -0.647685    2.806889
H       0.830598    1.760148    2.310828
H      -0.566280   -1.581471    2.628714
H      -0.594213   -2.389961    1.054033
H       0.778995   -2.624059    2.145587
