18

C       0.560866    0.699126   -0.448828
O      -0.540563    0.546822    0.433701
C      -1.550069   -0.389969    0.237756
C      -2.497749   -0.192137    1.412206
C      -2.199850   -0.596468   -1.185740
N      -0.929880   -1.350848   -1.579342
C      -1.209548   -1.875900   -0.171172
C      -2.665814   -1.977172   -0.674777
O      -3.537068   -2.776721   -0.832628
H       1.159640    1.505732   -0.015957
H       1.169237   -0.207955   -0.516696
H       0.249527    0.980687   -1.459424
H      -2.873517    0.834626    1.411182
H      -3.348592   -0.876627    1.379818
H      -1.957362   -0.348581    2.349727
H      -2.674464    0.124032   -1.849253
H      -1.130699   -2.065131   -2.284089
H      -0.562714   -2.604324    0.314248
