15

O       0.172397    1.403780   -0.125794
C       0.117021    0.026619   -0.080259
C      -1.205864   -0.823959   -0.030829
C      -0.232623   -1.993739    0.369591
O      -0.625106   -3.204536    0.900317
C       0.687930   -2.028948   -0.834166
C       0.911847   -0.735080   -1.122258
C       0.516634   -0.852631    1.179187
O       0.959434   -0.686607    2.269082
H      -0.018205    1.748212    0.753664
H      -1.891214   -0.526655    0.771757
H      -1.714640   -0.949114   -0.988368
H      -0.852510   -3.074310    1.827533
H       1.132602   -2.925900   -1.239813
H       1.590472   -0.280184   -1.828902
