17

C      -0.039748    1.419403   -0.021421
O      -0.035282   -0.003725    0.016839
C      -1.232046   -0.627483    0.010113
C      -1.216772   -2.026971    0.041720
C      -2.446959   -2.666116    0.038586
C      -3.624564   -1.927403    0.001344
C      -3.518919   -0.531861   -0.029527
N      -4.635525    0.279691   -0.121901
N      -2.337098    0.104590   -0.019683
H       1.010843    1.714701   -0.019095
H      -0.534932    1.791510   -0.923274
H      -0.551106    1.839241    0.850184
H      -0.276160   -2.560040    0.070405
H      -2.492464   -3.750372    0.064713
H      -4.595613   -2.408382   -0.010558
H      -4.463369    1.239927    0.135578
H      -5.496763   -0.097210    0.241166
