17

O      -0.031869   -0.042034    0.057246
C       0.036134    1.162627    0.005529
C       1.312014    1.929933    0.003391
C       2.755308    1.393561    0.062575
C       2.908349    2.932262   -0.001814
C       1.753731    3.018482   -1.067362
C       0.966588    4.287971   -0.777519
C       0.933897    4.346972    0.555134
C       1.703122    3.109687    0.994110
H      -0.881935    1.790000   -0.045314
H       3.054412    0.905683    0.993210
H       3.098567    0.825997   -0.805530
H       3.829863    3.519900   -0.005196
H       1.936127    2.697958   -2.093569
H       0.548858    4.962642   -1.511140
H       0.482239    5.082881    1.204993
H       1.834350    2.881442    2.052313
