18

O      -0.294154    1.322701    0.575999
C      -0.112143   -0.024635    0.244625
C       0.846464   -0.259690   -0.887472
C       1.233242   -0.652669    0.522384
C      -1.339988   -0.883900    0.347101
C      -2.394126   -0.642780    1.394908
N      -2.651250   -0.366284    0.001497
C      -2.954012    0.899165   -0.483589
O      -3.710955    1.669399    0.052808
H      -0.359820    1.399983    1.534335
H       0.621492   -1.043820   -1.601815
H       1.313728    0.623774   -1.305675
H       1.960295   -0.029743    1.030807
H       1.275822   -1.706071    0.778030
H      -1.172469   -1.914325    0.035348
H      -2.925199   -1.484502    1.830755
H      -2.293017    0.222642    2.045500
H      -2.490264    1.082974   -1.469491
