16

C      -0.223631    1.459562    0.180438
C      -0.020434   -0.051764    0.040446
C       0.966850   -0.598737    1.049422
O       0.476247   -0.455564    2.442607
C       0.405791   -1.808407    2.615534
O      -0.031401   -2.417336    3.539643
C       1.028616   -2.130163    1.246834
O       0.255537   -2.887162    0.355567
H       0.713234    2.004891    0.021940
H      -0.949884    1.822579   -0.552011
H      -0.592698    1.709944    1.178984
H      -0.970477   -0.583035    0.151859
H       0.356231   -0.300181   -0.959335
H       1.943160   -0.111993    0.973835
H       2.054075   -2.514279    1.340306
H       0.002803   -3.702809    0.802651
