18

C       0.084082    1.310680    0.219574
C       0.090283   -0.193697    0.503323
N       0.653281   -1.092199   -0.493269
C       1.125409   -0.630180   -1.572033
N       1.662364   -1.493786   -2.520369
C       2.199236   -1.076724   -3.725199
C       2.721737   -2.207025   -4.593589
O       2.241632    0.092472   -4.046611
H       1.096915    1.705335    0.086520
H      -0.495901    1.554969   -0.676654
H      -0.369939    1.839589    1.062853
H       0.627894   -0.384984    1.442064
H      -0.937529   -0.533080    0.691201
H       1.176713    0.412298   -1.886942
H       1.642773   -2.475238   -2.283696
H       3.504240   -2.768841   -4.072710
H       1.918602   -2.908646   -4.842723
H       3.129446   -1.784175   -5.510820
