14

N       0.101197    1.214093   -0.644388
C       0.071411    0.073637   -0.136267
O       0.978430   -0.638716    0.601384
C       0.089155   -1.799317    0.687938
C      -1.008718   -1.026397   -0.081511
C      -2.186099   -0.560771    0.795208
O      -2.290506   -0.824079    1.960439
C      -1.487229   -1.548648   -1.341538
C      -1.931293   -1.987154   -2.368198
H       0.989103    1.687992   -0.472035
H       0.509513   -2.656119    0.161430
H      -0.162180   -2.029631    1.723154
H      -2.924906    0.056323    0.248526
H      -2.303671   -2.369406   -3.287009
