14

O       0.072833    1.327343    0.371011
C      -0.000934   -0.023381   -0.055050
C      -1.435798   -0.447596    0.016676
N      -1.765928   -1.730535    0.179140
N      -3.101483   -1.749497    0.163838
C      -3.644396   -0.506759    0.007747
C      -2.576861    0.370187   -0.094041
C      -5.042066   -0.294012   -0.023414
N      -6.189488   -0.138322   -0.048467
H       0.963315    1.646591    0.199546
H       0.362587   -0.132407   -1.089535
H       0.601976   -0.694577    0.573289
H      -3.592554   -2.620722    0.282396
H      -2.617501    1.438334   -0.216933
