23

C       0.090803    1.471092   -0.274912
C      -0.022593    0.012752    0.089639
O       1.190860   -0.740501    0.199436
C       0.386248   -0.576403    1.376815
C       0.997364    0.175876    2.533731
C       2.071725   -0.655312    3.254546
C       2.697333    0.071691    4.425252
C       2.036094    0.048906    5.781844
C       3.329998   -0.696309    5.556398
H       0.880349    1.973335    0.286826
H       0.317821    1.574715   -1.341254
H      -0.857245    1.986034   -0.084146
H      -0.809311   -0.517734   -0.452854
H      -0.128680   -1.495096    1.672790
H       1.439447    1.113462    2.182715
H       0.202183    0.442685    3.242516
H       1.628051   -1.595637    3.609449
H       2.844939   -0.934691    2.528135
H       3.188085    1.005282    4.158647
H       2.057079    0.947550    6.388533
H       1.129313   -0.537812    5.892642
H       3.288798   -1.780039    5.515773
H       4.235465   -0.304868    6.006817
