23

C      -0.187417    1.527124   -0.034942
C       0.059606    0.023737    0.017630
O       0.789222   -0.351031   -1.164506
C       1.870623   -1.247945   -0.898906
C       2.937009   -0.515204   -0.072914
C       2.271724   -0.003415    1.236522
C       0.807781   -0.482641    1.266468
C       0.786781   -2.023532    1.224973
C       1.354505   -2.484168   -0.147583
H       0.748219    2.091367    0.016440
H      -0.681120    1.786045   -0.975986
H      -0.833467    1.843258    0.791023
H      -0.921187   -0.480928   -0.015332
H       2.260558   -1.526245   -1.882063
H       3.774404   -1.189802    0.137040
H       3.332587    0.316485   -0.662700
H       2.794471   -0.383672    2.120253
H       2.320024    1.087347    1.295112
H       0.300319   -0.116277    2.164839
H       1.380128   -2.424113    2.053889
H      -0.236311   -2.388453    1.363071
H       0.580508   -2.964540   -0.753358
H       2.164436   -3.210909   -0.025485
