18

C      -0.006180    2.082771   -0.175288
C      -0.062484    0.568625    0.020853
C       0.292844   -0.205329   -1.256702
O       1.609887    0.134845   -1.700348
C       2.598062   -0.757155   -1.483826
O       3.743101   -0.517511   -1.721998
N       0.812219    0.176029    1.122739
C       0.660216   -0.998817    1.787966
O      -0.175771   -1.836667    1.515405
H       0.996836    2.398486   -0.478007
H      -0.702814    2.389875   -0.959934
H      -0.279556    2.603346    0.746641
H      -1.078575    0.260067    0.292438
H       0.215140   -1.280417   -1.065025
H      -0.394398    0.061281   -2.064834
H       2.226077   -1.718592   -1.081335
H       1.549396    0.803299    1.403760
H       1.388298   -1.112171    2.614517
