20

C       0.044509    1.513891    0.145329
O       0.424308    0.166382   -0.050441
C       0.766727   -0.548691    1.145405
C      -0.466176   -0.823438    2.011596
C       1.460746   -1.839736    0.747447
C       1.046949   -2.605427   -0.501908
C       2.396651   -1.934493   -0.431896
O       2.722519   -0.834083   -1.221355
H       0.803340    2.067665    0.717606
H      -0.052053    1.965007   -0.845061
H      -0.918789    1.601950    0.663512
H       1.477283    0.071249    1.718871
H      -0.175809   -1.385449    2.904528
H      -0.947024    0.099428    2.347708
H      -1.195172   -1.416594    1.451925
H       1.725811   -2.436009    1.616927
H       0.978903   -3.687403   -0.458513
H       0.307860   -2.127043   -1.135405
H       3.265126   -2.576294   -0.316700
H       1.978393   -0.219820   -1.145651
