19

C       0.092231    1.511894   -0.067118
C      -0.017390   -0.006759    0.017279
O      -1.323134   -0.385550    0.556751
C      -0.723752   -0.867985    1.777586
C       0.697197   -0.648302    1.238759
O       1.346726   -1.873966    0.998112
C       2.133156   -1.901980   -0.181775
C       1.341860   -1.488826   -1.395457
C       0.304465   -0.663473   -1.288178
H       1.094290    1.813302   -0.389689
H      -0.634085    1.900275   -0.787996
H      -0.116842    1.968496    0.905356
H      -1.003479   -0.254402    2.642641
H      -0.957084   -1.919160    1.973925
H       1.346929    0.033667    1.804851
H       3.037279   -1.276896   -0.067984
H       2.475128   -2.936978   -0.283075
H       1.632699   -1.913815   -2.352079
H      -0.311466   -0.398580   -2.143826
