17

C       0.853753    1.241184   -0.151678
N      -0.027437    0.084470    0.029609
C       0.052719   -0.883515   -1.085778
C       1.194993   -1.857209   -0.775664
O       2.410585   -1.403073   -1.356342
C       1.319392   -1.752805    0.763109
O       2.135812   -2.343842    1.421891
C       0.308320   -0.696779    1.222375
H       1.921150    0.985636   -0.247370
H       0.552985    1.777374   -1.056564
H       0.730181    1.922595    0.695556
H      -0.892233   -1.438818   -1.139258
H       0.202463   -0.370320   -2.037206
H       0.972871   -2.891146   -1.076825
H       3.126616   -1.859240   -0.895098
H       0.698964   -0.082803    2.036198
H      -0.583654   -1.221396    1.599114
