18

O      -0.054240    1.427728   -0.027833
C      -0.009639    0.021732    0.018620
C       0.918224   -0.535980   -1.080278
C       2.273240   -0.015346   -0.940728
C       3.362382    0.468965   -0.778130
C       0.193344   -0.665447    1.405375
N      -1.120279   -1.395419    1.289033
C      -2.139248   -0.333026    1.232174
C      -1.386392   -0.626796   -0.000547
H       0.857222    1.746634   -0.064760
H       0.921811   -1.631110   -1.041077
H       0.509645   -0.247950   -2.057031
H       4.338870    0.868804   -0.656240
H       1.027383   -1.368760    1.446766
H       0.242492    0.015575    2.260177
H      -3.153880   -0.714525    1.291719
H      -1.964519    0.600994    1.759916
H      -1.837685   -1.099243   -0.868072
