12

C       0.003248   -1.193021   -0.107811
C       0.055463    0.006740   -0.038373
C       0.072129    1.415481    0.107544
O       0.217601    2.284962   -1.024486
C       1.145779    2.425254    0.038922
C       0.456481    3.245901    1.200454
O      -0.869299    3.566421    0.780896
C      -0.617621    2.259650    1.272036
H      -0.033769   -2.251794   -0.183721
H       2.203127    2.316093   -0.167865
H       0.929903    3.857249    1.957255
H      -1.206355    1.871582    2.093165
