14

O       0.021646    0.016091    0.233728
C      -0.042842    1.193919    0.012849
C      -1.348795    1.956636   -0.172777
O      -1.226485    3.041696   -1.078394
C      -0.127968    3.852873   -0.783717
O       1.094163    3.159408   -0.953229
C       1.236523    2.076893   -0.053235
C       1.562603    2.537236    1.312434
N       1.783012    2.915584    2.382001
H      -2.112774    1.277681   -0.554829
H      -1.664760    2.310236    0.825150
H      -0.118599    4.665036   -1.510380
H      -0.195426    4.250019    0.243942
H       2.052722    1.449159   -0.419709
