15

C      -0.079667   -1.210241   -0.112043
C      -0.043334   -0.011998   -0.036304
C      -0.042075    1.438033    0.040135
C      -0.996450    1.972269   -0.935606
N      -1.768617    2.381696   -1.691609
C       0.041383    2.147244    1.437062
C       1.490902    1.625657    1.467237
N       1.369114    2.138977    0.013416
C       0.639579    3.336966    0.663099
H      -0.107008   -2.270146   -0.183694
H      -0.728759    2.128197    2.213097
H       2.214301    2.198128    2.049185
H       1.663340    0.552735    1.545380
H       0.003973    3.897833   -0.022924
H       1.320978    3.992636    1.206381
