17

O      -0.220347    0.340318   -0.733537
C       0.106266    1.072415    0.172982
C       1.348057    1.863575    0.201533
C       1.809440    2.847053    1.281541
C       2.587146    3.624358    0.169485
O       3.935047    3.198585    0.079577
C       3.909548    1.805540   -0.261475
C       2.495372    1.540020   -0.763071
C       1.801826    2.839930   -0.913299
H      -0.549666    1.209949    1.062905
H       0.970766    3.429422    1.674555
H       2.413797    2.471586    2.113166
H       2.562000    4.712250    0.187748
H       4.653799    1.623688   -1.044693
H       4.172196    1.193423    0.611307
H       2.290670    0.735643   -1.458121
H       1.241115    3.186933   -1.769674
