17

C       0.039354    1.536656    0.095383
C      -0.019654    0.043942   -0.018350
C      -0.912062   -0.825185    0.776296
N       0.539164   -0.917821    1.027682
C       1.061085   -1.782034   -0.078810
C       0.558555   -0.783542   -1.177725
O      -0.422929   -1.206733   -2.097073
C       1.668495   -0.121950   -1.877137
N       2.541111    0.369383   -2.454719
H       1.034949    1.919263   -0.148189
H      -0.681274    2.001453   -0.586632
H      -0.207038    1.844697    1.114951
H      -1.452520   -0.344474    1.585697
H      -1.427211   -1.661582    0.311790
H       2.146916   -1.867445   -0.023962
H       0.604368   -2.775170   -0.132345
H       0.006846   -1.684331   -2.816419
