20

C      -1.793921    0.825490    1.236615
C      -0.954944   -0.407229    0.982806
C       0.109329   -0.428092   -0.067984
N       0.458616   -0.503900    1.345445
C       1.170809    0.520054    2.062595
C       1.198571    0.337075    3.573544
C       2.424851    0.014778    2.796509
C       1.302280    1.924418    1.579623
O       1.796518    2.819316    2.227541
H      -1.292185    1.749355    0.937805
H      -2.728677    0.761632    0.669640
H      -2.055910    0.911261    2.296693
H      -1.489766   -1.338807    1.166957
H       0.310669   -1.326990   -0.646692
H       0.273664    0.495543   -0.618259
H       1.192864    1.250419    4.156506
H       0.599987   -0.483087    3.950821
H       2.662207   -1.026032    2.615255
H       3.258875    0.704302    2.850766
H       0.946185    2.116201    0.546202
