21

C      -0.031178    1.491193   -0.038139
C      -0.010690   -0.013810    0.046260
C      -0.852511   -0.718472    1.075753
C       0.668928   -0.709935    1.202548
C       1.456167   -1.995071    0.952809
C       1.731742   -2.214304   -0.534535
O       2.127655   -3.568481   -0.697323
C       0.477723   -1.900561   -1.355798
O       0.114563   -0.536300   -1.256986
H       0.896724    1.864377   -0.483369
H      -0.865765    1.826389   -0.662614
H      -0.144342    1.933319    0.955134
H      -1.438416   -0.114706    1.760777
H      -1.316210   -1.662936    0.810623
H       1.077352   -0.060391    1.970698
H       2.405065   -1.970713    1.496077
H       0.908111   -2.870340    1.320979
H       2.527096   -1.526549   -0.862989
H       2.413052   -3.691701   -1.608444
H       0.659807   -2.080666   -2.421235
H      -0.339428   -2.570345   -1.043839
