19

C      -0.050258    1.519633    0.105275
C       1.496460    1.452788   -0.014651
C       2.050768    1.131364    1.378621
O       1.157665    0.269863    2.088418
C       0.552323   -0.710569    1.230552
C       1.637274   -1.625237    0.672329
C       2.120038   -1.103041   -0.458339
C       1.312090    0.108579   -0.843338
C      -0.010802   -0.017408   -0.045407
H      -0.467988    1.939069    1.023046
H      -0.511308    1.991573   -0.765872
H       2.039191    2.278010   -0.481468
H       3.048982    0.676319    1.299264
H       2.136279    2.038023    1.986814
H      -0.201344   -1.202643    1.848633
H       2.038067   -2.470919    1.218196
H       2.975896   -1.469536   -1.014199
H       1.213034    0.296078   -1.914420
H      -0.851801   -0.562671   -0.479688
