18

C       0.267025    0.643932   -1.409764
C       0.007780   -0.041118   -0.083085
C       1.144841   -0.607650    0.685764
N       0.454133    0.610328    1.156696
C      -1.365419   -0.676588    0.048066
C      -1.964022   -0.918981    1.393721
N      -2.496116    0.146731    0.539483
C      -1.704333   -1.587059   -1.027717
N      -1.931189   -2.326776   -1.886726
H       1.278068    1.061459   -1.438546
H       0.166205   -0.059057   -2.241771
H      -0.447152    1.458300   -1.575162
H       0.996054   -1.483600    1.309889
H       2.142375   -0.508477    0.266696
H       1.003799    1.435933    0.933787
H      -2.623135   -1.770714    1.527150
H      -1.353695   -0.637632    2.245539
H      -2.100413    1.032573    0.853935
