19

C      -0.147014    1.359796    0.142514
N      -0.043398   -0.080511    0.006664
C       0.629108   -0.635461   -0.927422
C       1.399543    0.046955   -2.031130
O       1.263147    1.202580   -2.346634
N       0.769498   -2.008845   -0.941361
C      -0.064321   -2.911408   -0.137884
C       0.137384   -4.007542   -1.218778
C       0.778406   -2.912399   -2.112802
H       0.781981    1.899353   -0.072692
H      -0.909446    1.763242   -0.536335
H      -0.461752    1.586335    1.165819
H       2.140161   -0.603851   -2.546779
H       0.329784   -3.112122    0.862451
H      -1.093590   -2.546947   -0.037702
H       0.837318   -4.791003   -0.925234
H      -0.770360   -4.466305   -1.610258
H       0.131201   -2.578959   -2.934229
H       1.774616   -3.126992   -2.512755
