18

C       0.019650    1.523381   -0.037839
C      -0.058275    0.025516   -0.005478
C      -1.216767   -0.688521   -0.073440
C      -1.176305   -2.118516   -0.034040
C      -2.473184   -2.880867   -0.111079
C       0.023584   -2.760998    0.071500
C       1.282041   -2.049302    0.146953
O       2.400216   -2.530896    0.242322
N       1.124868   -0.648148    0.099614
H       0.619356    1.868611   -0.888181
H      -0.976969    1.959040   -0.123021
H       0.488422    1.913488    0.873197
H      -2.162428   -0.168004   -0.156987
H      -3.007077   -2.647788   -1.039585
H      -2.308582   -3.959664   -0.071395
H      -3.137567   -2.603140    0.715330
H       0.088943   -3.842110    0.103853
H       1.996208   -0.137568    0.151403
