19

C      -0.097846    1.560645    0.472484
C      -0.018295    0.133395   -0.052799
C      -1.361746   -0.392778   -0.557970
O       0.968182    0.096226   -1.081334
C       1.657138   -1.129270   -0.956850
C       1.678954   -1.339410    0.570216
O       0.452016   -0.741677    0.985438
C       1.756007   -2.734599    0.979994
C       1.852336   -3.889391    1.296370
H       0.882176    1.875646    0.837570
H      -0.412456    2.240242   -0.324154
H      -0.818552    1.620302    1.291822
H      -1.755882    0.262055   -1.339835
H      -1.247867   -1.400962   -0.964019
H      -2.080823   -0.436030    0.264255
H       1.131104   -1.957717   -1.451119
H       2.651863   -1.021033   -1.393531
H       2.523517   -0.784683    1.006054
H       1.931314   -4.908670    1.584364
