19

O       0.007209    1.424497    0.182867
C       0.003569    0.025377    0.120567
C      -0.582245   -0.763554    1.264736
C      -1.332203   -0.637015   -0.051179
C      -2.591048    0.182079   -0.134497
C      -3.110843    0.621757   -1.559599
C      -4.404417   -0.148474   -1.272618
O      -4.035999   -1.512494   -1.024869
C      -3.922921   -0.572230    0.051107
H       0.670069    1.689952    0.828534
H       0.850712   -0.405627   -0.413067
H      -0.141111   -1.717687    1.531844
H      -0.961214   -0.186222    2.102526
H      -1.347003   -1.520664   -0.681774
H      -2.529972    1.051073    0.523887
H      -3.245267    1.702787   -1.636255
H      -2.542131    0.261389   -2.420252
H      -5.410150    0.031076   -1.634381
H      -4.457455   -0.805698    0.965387
