21

C       0.014947    1.517614    0.504285
C       0.022573    0.089739   -0.056686
C      -1.360473   -0.513149   -0.177689
C      -2.089175   -1.019773    1.067318
C      -1.692751   -1.992113    0.005761
C      -2.772895   -2.400340   -0.994943
C      -3.370640   -1.073391   -1.505908
C      -2.277508   -0.021817   -1.258134
O      -2.137414    0.999781   -1.888352
H       1.032985    1.912834    0.575958
H      -0.566327    2.176642   -0.144201
H      -0.427339    1.544651    1.506061
H       0.494934    0.090840   -1.046263
H       0.635644   -0.558777    0.581582
H      -1.500715   -1.000867    1.978719
H      -3.137012   -0.777379    1.213311
H      -0.894561   -2.694044    0.222442
H      -2.312250   -2.946571   -1.824864
H      -3.522125   -3.061697   -0.547763
H      -3.642941   -1.084165   -2.562645
H      -4.270410   -0.782482   -0.950717
