18

C       0.136946    1.596478   -0.024022
C       0.058324    0.079584    0.044331
C       0.901638   -0.764152   -0.967724
C       1.414340   -1.636240    0.208931
O       2.812500   -1.570830    0.464052
C       3.066194   -0.520309    1.301905
N       4.192772   -0.097655    1.663322
O       1.910829    0.048304    1.732535
C       0.780298   -0.648587    1.213713
H       1.172083    1.939901    0.052712
H      -0.276274    1.959004   -0.970911
H      -0.429134    2.060612    0.790125
H      -0.987533   -0.245244    0.028684
H       0.345663   -1.287089   -1.748057
H       1.716334   -0.202052   -1.431518
H       1.100318   -2.679702    0.225724
H       4.927498   -0.646622    1.223826
H       0.176231   -1.008971    2.049294
