16

C      -0.036624    1.610588   -0.087335
O       1.339985    2.019182    0.027667
C       2.044322    0.896703    0.550984
C       1.476487    0.523285    1.949060
C       0.456114   -0.505556    1.420863
O       1.349813   -1.417545    0.708727
C       1.468300   -0.329279   -0.235199
C       0.010248    0.094719    0.042593
H      -0.647445    2.091345    0.689585
H      -0.414850    1.933598   -1.063572
H       3.111680    1.098383    0.483765
H       2.198389    0.031576    2.604045
H       1.054303    1.395767    2.453122
H      -0.227136   -0.999153    2.111327
H       1.881935   -0.593216   -1.206712
H      -0.763693   -0.479238   -0.462981
