15

C      -0.040739    1.396090    0.057868
O      -0.010116   -0.018638    0.023057
C       0.602050   -0.559103   -1.048831
C       1.212532    0.037593   -2.133919
N       1.658786   -0.995056   -2.906272
N       1.386923   -2.202418   -2.409531
C       0.734122   -1.961567   -1.261949
C       0.266135   -2.998965   -0.422002
C      -0.143911   -3.858353    0.313772
H       0.974677    1.815162    0.074129
H      -0.581005    1.803192   -0.807775
H      -0.562283    1.675785    0.974073
H       1.360929    1.067109   -2.410195
H       2.153347   -0.932507   -3.779452
H      -0.502468   -4.621539    0.958579
