20

C       0.017970    1.534664   -0.141811
N       0.035612    0.091864    0.087796
C      -0.889412   -0.517288    1.030315
C       0.069357   -1.602511    1.390242
C       1.125479   -0.561809    0.856082
C       1.126848    0.010202    2.319149
O       1.280561    1.388147    2.585311
C      -0.266832   -0.565637    2.458523
C      -1.074123   -0.717219    3.712366
H       0.908257    1.809049   -0.718587
H      -0.856175    1.772176   -0.758969
H      -0.007224    2.143932    0.768293
H      -1.961409   -0.560272    0.875096
H       0.012799   -2.680378    1.369379
H       2.056112   -0.763115    0.325399
H       1.824601   -0.585301    2.926767
H       2.216999    1.606196    2.544845
H      -1.361107    0.261250    4.112222
H      -1.993886   -1.282210    3.525207
H      -0.514398   -1.246329    4.492727
