20

C      -0.150149    1.393218   -0.076583
N      -0.195917   -0.056022   -0.171117
C       0.554542   -0.656039   -0.986139
O       1.425529   -0.050364   -1.856791
C       2.235852   -1.039561   -2.512484
C       1.437545   -2.349451   -2.434633
C       0.641054   -2.138159   -1.158290
C       0.803316   -2.997655    0.082758
C      -0.484692   -3.016479   -0.689289
H       0.738966    1.843186   -0.533506
H      -1.036779    1.823181   -0.559686
H      -0.192717    1.683865    0.978516
H       2.423261   -0.693229   -3.531173
H       3.194920   -1.118463   -1.985096
H       0.770464   -2.440068   -3.299208
H       2.084526   -3.229229   -2.410732
H       1.462250   -3.857085    0.012569
H       0.812931   -2.479875    1.034983
H      -1.336221   -2.503195   -0.257185
H      -0.715946   -3.893485   -1.284903
