18

C      -0.222132    1.638287    0.041868
C      -0.214847    0.150714   -0.216899
C      -0.184916   -0.816645    0.935871
C      -1.437376   -0.671212    0.106631
N       1.124753    2.146250    0.297154
C       1.892708    2.543903   -0.878499
C       1.332145    3.567231    0.046237
H      -0.699683    2.162593   -0.808383
H      -0.831718    1.852563    0.929016
H       0.339372   -0.143866   -1.104451
H       0.399092   -1.724323    0.832764
H      -0.185731   -0.401653    1.938170
H      -2.286246   -0.163180    0.553339
H      -1.710213   -1.476586   -0.566284
H       2.950959    2.299561   -0.861175
H       1.418997    2.449517   -1.855221
H       0.487260    4.151592   -0.316534
H       1.972456    4.085407    0.754524
