18

O       0.254492    1.389862   -0.001292
C      -0.005244    0.014793    0.022753
C      -1.367218   -0.353761    0.630811
O      -0.758238   -1.421125    1.396525
C       0.574367   -0.902590    1.139804
C       1.549910   -1.873599    0.477200
N       1.380445   -1.788307   -0.992149
C       0.028625   -2.139404   -1.441840
C       0.395093   -0.710326   -1.260232
H       1.101871    1.537072   -0.435367
H      -1.760648    0.438964    1.278319
H      -2.150423   -0.715361   -0.042104
H       0.978769   -0.395464    2.023266
H       2.578230   -1.575854    0.711530
H       1.408584   -2.901575    0.824434
H      -0.023024   -2.548735   -2.447339
H      -0.649527   -2.591220   -0.723831
H       0.574146   -0.082798   -2.130485
