17

N      -0.186750    1.254500   -0.040581
C      -0.028876    0.010158    0.046270
O      -1.131058   -0.790306   -0.128394
C      -0.965466   -2.152136   -0.020321
O       0.078562   -2.690825    0.209118
C      -2.313100   -2.821569   -0.203315
N      -2.169953   -4.248551   -0.378480
C      -2.047139   -5.042869    0.838422
C      -3.304506   -5.067179    0.042179
H       0.704999    1.725395    0.106575
H       0.880175   -0.557831    0.244687
H      -2.930718   -2.533215    0.669572
H      -2.800112   -2.383305   -1.081059
H      -1.340652   -5.865002    0.789522
H      -2.072388   -4.521209    1.793704
H      -4.172880   -4.562812    0.463438
H      -3.536712   -5.908850   -0.603143
