16

C      -0.002518    1.463327   -0.006852
N      -0.001851    0.016193    0.028167
C      -0.040279   -0.827453   -1.041168
N      -0.024760   -2.091116   -0.681652
C       0.027413   -2.071539    0.693135
C       0.059628   -3.335755    1.488615
O       0.108221   -2.996029    2.866600
C       0.042184   -0.781372    1.154061
H       0.911539    1.867640    0.439486
H      -0.057030    1.793502   -1.046109
H      -0.864837    1.867731    0.532388
H      -0.079257   -0.455943   -2.055215
H      -0.831375   -3.939871    1.252297
H       0.934761   -3.934898    1.188847
H       0.132847   -3.812441    3.372495
H       0.078643   -0.371234    2.148309
