23

C      -0.170281    1.342573    0.031192
O       0.108149   -0.035068   -0.045750
C       0.722926   -0.586405    1.108576
C      -0.240667   -0.693963    2.302266
C       0.324216   -1.563812    3.395383
C       1.366187   -2.375809    3.220243
C       2.093809   -2.526041    1.908298
C       1.296692   -1.957575    0.717822
C       0.213777   -2.932850    0.232481
H       0.729539    1.925209    0.286254
H      -0.521806    1.655885   -0.955394
H      -0.951694    1.579364    0.768072
H       1.566764    0.060894    1.406331
H      -0.460833    0.302480    2.704280
H      -1.202601   -1.092422    1.949581
H      -0.159513   -1.506303    4.367677
H       1.733241   -2.966520    4.056520
H       3.073521   -2.030796    1.980094
H       2.317845   -3.585335    1.727362
H       1.986170   -1.780870   -0.115854
H      -0.445557   -3.244070    1.048948
H      -0.397018   -2.472509   -0.547536
H       0.674155   -3.836534   -0.180054
