23

C      -0.041246    1.550642    0.010784
C       0.041461    0.022406    0.006730
C       0.922347   -0.570468   -1.116718
C       2.364685   -0.276574   -0.632913
C       2.268975   -0.285871    0.922697
C       0.778442   -0.584484    1.222518
C       0.530836   -2.102310    1.213081
O       1.074735   -2.717573    0.053875
C       0.676570   -2.088118   -1.155828
H       0.945008    2.020055    0.074172
H      -0.522312    1.916748   -0.902912
H      -0.630798    1.906207    0.863018
H      -0.980457   -0.373298   -0.058505
H       0.706689   -0.146471   -2.103467
H       3.069133   -1.026642   -1.001869
H       2.706060    0.694391   -1.002329
H       2.923478   -1.040747    1.366281
H       2.561728    0.680400    1.342696
H       0.443149   -0.172149    2.180388
H       1.022986   -2.588456    2.061960
H      -0.551582   -2.305585    1.286160
H      -0.388578   -2.289717   -1.363449
H       1.269418   -2.564451   -1.943726
