25

C       0.078290    1.584338    0.006526
C       0.028210    0.056027   -0.070654
C      -1.392839   -0.507482    0.035814
C      -1.452858   -2.036737   -0.040462
C      -2.876714   -2.591622    0.066737
C      -2.932149   -4.116770   -0.009763
C      -4.338911   -4.693822    0.094580
C      -4.450388   -6.208208    0.024037
O      -5.313847   -3.989597    0.226135
H       1.104662    1.956457   -0.072244
H      -0.504192    2.040693   -0.801661
H      -0.335258    1.946473    0.954443
H       0.480164   -0.278412   -1.014098
H       0.647827   -0.371923    0.728801
H      -1.846255   -0.173255    0.979460
H      -2.013932   -0.079736   -0.763585
H      -0.998749   -2.370669   -0.984408
H      -0.831026   -2.464215    0.759129
H      -3.336735   -2.264443    1.006312
H      -3.503588   -2.171380   -0.728179
H      -2.487613   -4.480401   -0.947933
H      -2.321139   -4.573269    0.782877
H      -3.868222   -6.672562    0.828014
H      -5.495739   -6.507402    0.108540
H      -4.036437   -6.578718   -0.920574
