21

C      -0.104112    1.514294    0.077674
C       0.001224   -0.031592   -0.001584
C      -1.416944   -0.633013   -0.037065
C       0.761436   -0.432998   -1.248839
C       1.931153   -1.068613   -1.270749
C       2.695308   -1.438435   -0.028204
C       2.247525   -0.588552    1.174928
C       0.732840   -0.507598    1.267063
O       0.135371   -0.776631    2.283891
H       0.881393    1.985390    0.137872
H      -0.603040    1.900282   -0.817501
H      -0.688652    1.813798    0.952816
H      -1.972917   -0.243446   -0.896062
H      -1.379941   -1.722908   -0.121021
H      -1.957467   -0.383286    0.878080
H       0.263809   -0.189597   -2.186532
H       2.372033   -1.346146   -2.225043
H       2.556440   -2.506251    0.193725
H       3.771561   -1.310078   -0.191604
H       2.632638   -0.971755    2.122256
H       2.629171    0.432034    1.039038
