20

C       0.033643    1.519063   -0.336663
C      -0.130745    0.011793   -0.253143
O       0.912861   -0.595345   -0.999557
C       0.894196   -1.989054   -0.965581
C      -0.112759   -2.709247   -1.930081
N       1.046456   -3.320205   -2.581564
C       2.050066   -2.612926   -1.787889
C       1.195815   -4.224735   -3.571523
O       2.266461   -4.620524   -3.986581
H       1.002900    1.821449    0.069287
H      -0.022608    1.854558   -1.375908
H      -0.754666    2.019219    0.233407
H      -0.086563   -0.329274    0.794330
H      -1.112114   -0.292408   -0.651751
H       0.829796   -2.358755    0.066719
H      -0.806429   -3.420483   -1.469272
H      -0.668544   -2.011259   -2.567383
H       2.617752   -1.868249   -2.354628
H       2.740247   -3.268203   -1.249429
H       0.217486   -4.573886   -3.963247
