23

C       0.889770   -0.423265    1.435639
C       0.091187   -0.071157    0.172862
C       0.776848   -0.422035   -1.132257
C      -0.036579   -0.855105   -2.330574
C       0.889323   -1.836497   -1.656082
C       2.274932   -1.942636   -2.264077
O       2.685148   -0.600400   -2.502669
C       2.112838    0.234990   -1.492020
C       2.041893    1.657255   -2.026425
H       1.143840   -1.488342    1.456403
H       1.824554    0.141602    1.501866
H       0.308158   -0.199351    2.335285
H      -0.873956   -0.590797    0.206253
H      -0.149872    1.000685    0.180332
H      -1.102276   -0.989090   -2.177754
H       0.237576   -0.488616   -3.314866
H       0.484412   -2.681612   -1.110431
H       2.959379   -2.452017   -1.565368
H       2.311145   -2.468509   -3.224529
H       2.759551    0.219819   -0.597891
H       1.376147    1.714586   -2.892042
H       1.669538    2.337881   -1.254129
H       3.035338    1.998273   -2.330836
