16

O       0.170944    1.314216   -0.218802
C       0.033481   -0.079056   -0.020860
C       0.527935   -0.563960    1.330017
C      -0.179389   -1.787836    1.766008
N      -0.556509   -0.469128    2.369439
C      -1.829394   -0.496510    1.543365
C      -1.398865   -0.568913    0.083645
C      -1.493192   -1.819916    0.940859
O      -2.303409   -2.905139    0.718259
H      -0.286135    1.753023    0.508484
H       0.581200   -0.549947   -0.843916
H       1.523179   -0.313553    1.680008
H       0.227496   -2.594686    2.365156
H      -2.743352   -0.062700    1.924212
H      -2.133153   -0.402338   -0.693940
H      -2.009389   -3.351322   -0.084299
