15

O      -0.065880    0.006596   -0.130117
C      -0.061290    1.196292   -0.027136
C      -1.269074    2.190228    0.047066
C      -0.904129    3.356803    1.031338
C       0.181775    3.479365   -0.045245
C       1.380807    4.136950   -0.722274
O       1.940393    2.806126   -0.955630
C       1.076775    2.250266    0.072441
O      -0.791087    3.027410   -1.046348
H      -2.272894    1.787204   -0.069555
H      -1.675068    4.128879    1.002352
H      -0.591602    3.130359    2.053230
H       1.171929    4.670922   -1.652473
H       2.021678    4.733165   -0.062442
H       1.638902    2.099693    1.003930
