12

O      -0.063612   -0.095276    0.004433
C       0.023323    1.114481    0.007958
N      -1.131752    1.924904    0.028784
N      -1.215367    3.260266    0.036751
N      -0.148624    3.950951    0.025332
C       1.086221    3.294308    0.005101
C       1.211128    1.936086   -0.003518
C       2.218706    4.155909   -0.005787
C       3.182968    4.874496   -0.015095
H      -2.029294    1.455309    0.039280
H       2.176793    1.447853   -0.018902
H       4.031187    5.514617   -0.023199
