15

O       0.033880    0.380850   -1.156834
C      -0.015879    1.280365   -0.350145
N       1.073711    1.803151    0.298027
C       2.358792    1.158632    0.210108
C       3.396377    1.960804   -0.628644
C       2.995678    2.134177   -2.021062
N       2.695329    2.286466   -3.125720
C       2.943849    0.945164    1.599908
O       2.435101    1.366266    2.605139
H      -0.952295    1.791490   -0.060113
H       0.914698    2.357172    1.128707
H       2.213152    0.182833   -0.269920
H       3.540394    2.950462   -0.180510
H       4.366171    1.449724   -0.603775
H       3.904428    0.387804    1.620780
