16

C       0.085636    1.441049    0.008705
C       0.033816   -0.010681    0.000907
C      -0.028256   -1.216107   -0.004806
C      -0.084962   -2.664255   -0.011566
O      -1.140961   -3.265794   -0.004663
C       1.258065   -3.368464   -0.027866
C       1.136620   -4.885200   -0.035355
O       2.457828   -5.407812   -0.050429
H       1.117364    1.807049    0.001282
H      -0.427339    1.851519   -0.867836
H      -0.411198    1.841378    0.899130
H       1.824699   -3.027519   -0.903888
H       1.840528   -3.037446    0.841582
H       0.577494   -5.215633    0.851397
H       0.561324   -5.205601   -0.915435
H       2.397327   -6.367430   -0.054637
