22

C      -0.161097    1.606454    0.020280
C      -0.004480    0.087828    0.002446
C      -1.374142   -0.578949   -0.179770
C       1.092336   -0.593498   -0.881730
C       2.377854    0.179420   -0.538198
C       2.371410   -0.273334    0.941377
C       2.510512   -1.789714    0.723115
N       1.123864   -1.759984    0.148063
C       0.824473   -0.597906    1.098690
H       0.743237    2.133923    0.331530
H      -0.449787    1.983159   -0.968083
H      -0.956311    1.889461    0.718950
H      -1.840260   -0.237513   -1.111427
H      -1.285649   -1.665693   -0.214918
H      -2.048670   -0.310853    0.641500
H       0.898419   -0.872946   -1.917754
H       3.263351   -0.179747   -1.070404
H       2.296489    1.253555   -0.704971
H       2.955809    0.291116    1.669568
H       3.307446   -2.156697    0.067310
H       2.482674   -2.384700    1.640779
H       0.444554   -0.837403    2.094685
