19

C       0.010257    1.397512   -0.265355
C       1.340830    0.821210    0.058544
N       0.152542   -0.024688    0.039157
C      -0.305603   -0.547965    1.313599
C      -1.289689    0.221299    2.266741
C      -2.423714   -0.087532    1.238752
C      -1.604575   -1.405916    1.358900
C      -1.597192   -1.167576    2.895332
H      -0.441899    2.042419    0.484483
H      -0.259345    1.634574   -1.291282
H       2.071122    0.629011   -0.723128
H       1.768157    1.080783    1.026520
H       0.547584   -1.014365    1.818586
H      -1.117170    1.155193    2.805260
H      -3.439960   -0.112345    1.642559
H      -2.394985    0.428436    0.278941
H      -1.781977   -2.345630    0.834565
H      -0.796425   -1.641708    3.470350
H      -2.562009   -1.258568    3.399530
