18

C      -0.075563    1.401334   -0.085057
N      -0.009931   -0.045477   -0.021984
C       0.588559   -0.582337    0.979583
C       1.240898    0.050678    2.112413
C       1.822712   -0.697164    3.079184
C       1.786045   -2.117990    2.968954
N       1.212122   -2.729131    1.969525
N       0.639704   -1.992983    1.018151
C       0.015388   -2.729878   -0.071297
H       0.917429    1.876900   -0.129813
H      -0.614008    1.693036   -0.991059
H      -0.610923    1.846813    0.768835
H       1.244031    1.131985    2.153846
H       2.313231   -0.236851    3.930744
H       2.235992   -2.762754    3.714513
H       0.157645   -3.789706    0.131443
H      -1.046808   -2.478086   -0.131451
H       0.470847   -2.444775   -1.023381
