17

C       0.085143    1.477265   -0.177343
O       1.516003    1.452195    0.121028
C       1.307488    0.241937    0.909987
C       1.902951   -1.136450    0.761536
C       0.615369   -2.026843    0.899874
C      -0.653456   -1.131273    0.962075
C       0.011237   -0.019755    0.147338
O       0.449331   -0.713888   -1.039167
C       1.230174   -1.724640   -0.444893
H      -0.459927    2.128267    0.516648
H      -0.115767    1.754384   -1.213995
H       1.173916    0.517080    1.963342
H       2.856606   -1.470665    1.145826
H       0.660408   -3.003678    1.361504
H      -1.505359   -1.612614    0.475729
H      -0.925147   -0.821352    1.972954
H       1.660866   -2.440258   -1.130820
