18

N       0.123272    0.899979    0.014303
H       0.604062   -0.001658    0.011622
H       0.830296    1.635948    0.084750
H      -0.374778    1.007527   -0.870084
C      -0.869245    1.004820    1.242813
C      -0.022213    0.864704    2.492927
C       1.010630    1.985532    2.759819
O       0.263605    2.513367    3.843756
C      -0.695442    1.401870    3.785963
C      -2.194550    1.828964    3.695617
O      -2.564700    2.627668    4.552386
O      -2.808980    1.266577    2.745531
H      -1.352110    1.971343    1.134518
H      -1.602417    0.218390    1.101708
H       0.374881   -0.154965    2.558217
H       2.003947    1.619437    3.060116
H       1.160119    2.733048    1.954841
H      -0.546236    0.738738    4.647204
