14

N       0.000946    1.417563    0.154767
C      -0.023758    0.037400    0.052953
C      -1.155345   -0.719335    0.022112
O      -2.370716   -0.119616    0.025469
N      -1.149303   -2.092753   -0.011536
C      -0.009423   -2.667709   -0.021365
O       1.182956   -2.042454   -0.012781
C       1.250295   -0.648129    0.007133
N       2.364572   -0.036836   -0.020085
H       0.884660    1.810879   -0.140683
H      -0.812127    1.886053   -0.216545
H      -3.028442   -0.825588   -0.005601
H       0.099243   -3.745561   -0.040134
H       3.149541   -0.683789   -0.060824
