15

C      -0.088956    1.476783    0.097141
N      -0.013061    0.022738   -0.033170
C       0.715672   -0.484911   -1.200478
C       2.202877   -0.046005   -1.323699
C       0.672401   -1.963443   -1.128652
N       0.689280   -3.113716   -1.035193
C      -0.003967   -0.057926   -2.425377
N      -0.529681    0.314700   -3.383064
H       0.880395    1.984890    0.210871
H      -0.596102    1.893390   -0.777841
H      -0.698697    1.704308    0.974622
H       0.379386   -0.400497    0.800663
H       2.745286   -0.365498   -0.430309
H       2.667915   -0.499569   -2.201719
H       2.263463    1.039479   -1.417378
