19

C      -0.071475    1.388151   -0.262402
O      -0.064411    0.099821    0.312555
C      -1.296165   -0.559130    0.215234
C      -1.581596   -1.260828   -1.146232
N      -1.114503   -2.530241   -0.552822
C      -1.847084   -3.732216   -0.878472
C      -1.284002   -4.906513   -0.200911
N      -0.857931   -5.829367    0.347383
C      -1.211220   -1.976906    0.816319
H       0.921101    1.816143   -0.106420
H      -0.277151    1.359891   -1.342891
H      -0.820923    2.039256    0.214388
H      -2.108313    0.078240    0.589095
H      -2.654218   -1.256104   -1.399264
H      -1.004468   -0.926688   -2.014660
H      -2.923189   -3.675842   -0.615874
H      -1.793416   -3.900771   -1.960792
H      -0.343714   -2.174037    1.450950
H      -2.131338   -2.265551    1.347191
