20

C       0.398564    1.250743    0.733341
C       0.111051   -0.046959   -0.005305
C       1.195871   -0.481315   -1.007966
C       1.212320   -2.009942   -0.855450
C       0.895354   -2.159215    0.627672
O       2.131858   -2.007592    1.339197
C       2.074838   -2.202315    2.672832
N       3.091651   -1.978451    3.386695
O      -0.002554   -1.139151    0.943796
H       1.356353    1.187476    1.258133
H       0.440377    2.087555    0.027988
H      -0.385527    1.460540    1.466175
H      -0.863332    0.024594   -0.507346
H       0.972760   -0.151352   -2.024669
H       2.165528   -0.065786   -0.718398
H       0.412439   -2.475426   -1.439379
H       2.161711   -2.475526   -1.121654
H       0.437243   -3.112300    0.916082
H       1.099465   -2.563767    3.023106
H       2.883727   -2.198813    4.358798
