20

C      -0.113534    1.557816   -0.006254
C      -0.018405    0.018231   -0.002579
C      -1.421011   -0.598581    0.009159
C       0.784558   -0.479333   -1.219509
C       2.288569   -0.170757   -1.156835
O       2.931100    0.019103   -2.175528
C       2.856872   -0.215331    0.179541
C       2.053249   -0.369144    1.262675
N       0.694495   -0.435605    1.206765
H       0.880185    2.012443    0.021566
H      -0.623300    1.908889   -0.908819
H      -0.680006    1.911739    0.861695
H      -1.976431   -0.299328   -0.884182
H      -1.366333   -1.690472    0.035405
H      -1.992426   -0.261191    0.882318
H       0.692065   -1.571959   -1.288004
H       0.379628   -0.060021   -2.143554
H       3.931707   -0.163581    0.292717
H       2.471709   -0.464512    2.261160
H       0.197765   -0.323314    2.077254
