20

C       0.039407    1.263752   -0.242493
O      -0.028714   -0.032029    0.312806
C      -1.280832   -0.640633    0.158520
C      -1.715120   -1.179278   -1.240387
C      -0.607495   -2.016127   -1.904990
N      -0.883520   -3.200303   -1.020116
C      -0.263020   -2.982591    0.333387
C      -1.402353   -2.048461    0.778866
C      -2.144127   -2.498600   -0.522217
H       1.043396    1.648707   -0.049445
H      -0.134424    1.256845   -1.328646
H      -0.696464    1.940127    0.219736
H      -2.078030    0.010341    0.553249
H      -2.359150   -0.551428   -1.857244
H      -0.835993   -2.271954   -2.944649
H       0.416195   -1.631608   -1.849702
H      -0.257833   -3.926657    0.887470
H       0.750249   -2.570929    0.318855
H      -1.783457   -2.119569    1.797915
H      -3.107757   -3.001026   -0.589756
