17

O      -0.193706    0.528345   -1.096139
C      -0.060755    1.270336   -0.163904
C      -1.161076    1.612507    0.829382
C      -1.218853    3.092484    1.193617
C      -2.457585    3.862094    1.029205
O      -2.057381    3.381205    2.317384
C       0.138707    3.782747    1.158780
C       1.253385    2.743389    1.195978
O       1.144752    1.848464    0.076091
H      -2.105953    1.240982    0.433840
H      -0.950249    1.053956    1.751817
H      -2.408944    4.943009    0.899114
H      -3.338879    3.384338    0.603250
H       0.243200    4.367459    0.237843
H       0.219002    4.468813    2.006711
H       2.238806    3.202340    1.101163
H       1.234274    2.168981    2.131061
