23

C       0.010577    1.465583    0.048999
C       0.006237   -0.023344    0.001084
C      -0.005521   -0.875199   -1.028407
C      -0.002812   -2.266871   -0.369546
C      -0.014224   -3.498356   -1.245784
C       1.073283   -2.022065    0.746907
C       0.015460   -0.968382    1.232225
C       0.029941   -0.378606    2.624630
C      -1.056494   -2.016770    0.766917
H       0.895605    1.852934    0.570715
H       0.000864    1.892156   -0.958232
H      -0.860968    1.857458    0.589655
H      -0.014989   -0.674176   -2.091971
H       0.862869   -3.524942   -1.902742
H      -0.008692   -4.414391   -0.645822
H      -0.905947   -3.522611   -1.882840
H       1.184178   -2.867858    1.436233
H       2.051143   -1.647955    0.431107
H       0.916998    0.244383    2.787140
H      -0.851945    0.246995    2.804363
H       0.036165   -1.166546    3.384885
H      -2.038226   -1.637780    0.469478
H      -1.158652   -2.862002    1.458273
