23

C       0.209101    1.555485    0.296487
C       0.168429    0.026311    0.213885
C       0.511294   -0.505731   -1.176896
C       2.022273   -0.423235   -1.575068
C       2.138683   -1.973152   -1.471787
C       0.616433   -2.036917   -1.311226
C      -0.218507   -3.095188   -0.632799
C      -0.314666   -2.875659   -2.124317
O      -1.433989   -2.224532   -2.653708
H       1.200698    1.944075    0.040158
H      -0.509919    2.005081   -0.397348
H      -0.033998    1.907193    1.304128
H       0.859463   -0.404838    0.950903
H      -0.832756   -0.325065    0.494664
H      -0.167563   -0.061820   -1.911778
H       2.183152   -0.044663   -2.586902
H       2.658526    0.144876   -0.891174
H       2.554128   -2.488371   -2.342923
H       2.683922   -2.308097   -0.583868
H       0.272581   -3.992760   -0.268087
H      -1.060082   -2.759708   -0.034065
H       0.128477   -3.629516   -2.777680
H      -2.185771   -2.822307   -2.588179
