15

O       0.363870    0.147398   -0.396536
C       0.400836    1.340515   -0.374395
O       0.808230    2.035744    0.705377
C       0.895819    3.460371    0.571711
C       2.290047    3.879350    0.228257
C       3.426999    3.114710    0.197895
N       4.431618    3.985932   -0.163498
C       3.865846    5.213088   -0.330160
N       2.573053    5.185292   -0.102121
H       0.098174    1.994157   -1.215824
H       0.189230    3.821985   -0.186715
H       0.578812    3.872720    1.534339
H       3.608181    2.072829    0.397241
H       5.402107    3.751439   -0.288309
H       4.440164    6.080369   -0.619450
