19

C      -0.031111    1.554835    0.072553
N       1.347204    2.113093    0.044479
C       2.334778    1.029365   -0.003615
C       2.069944    0.122822    1.210402
O       0.767155   -0.469381    1.114898
C       0.035191    0.028187   -0.017924
C       0.788843   -0.420944   -1.266759
N       1.180666    0.626602   -2.238606
C       2.159387    0.141006   -1.245878
H      -0.526575    1.821685    1.014145
H      -0.624062    1.956835   -0.753620
H       1.444369    2.650549   -0.809396
H       3.340013    1.456738    0.060585
H       2.815360   -0.681274    1.266163
H       2.127654    0.717973    2.130360
H      -0.958342   -0.418987    0.061495
H       0.610164   -1.428272   -1.629253
H       1.369181    0.186625   -3.135761
H       3.004753   -0.451689   -1.585157
