24

C       0.798251    1.576936    0.107673
O       0.469352    0.208323    0.155685
C       0.206457   -0.459690   -1.088258
C      -0.940331    0.203702   -1.862180
C       1.476823   -0.540618   -1.946170
C      -0.226059   -1.858737   -0.602075
N      -0.515367   -2.773518   -1.700424
C       0.501307   -3.770508   -2.025552
C      -0.752173   -4.162945   -1.327838
H       1.712835    1.776969   -0.468518
H      -0.011660    2.193876   -0.305904
H       0.972529    1.888587    1.141185
H      -0.636912    1.151678   -2.315908
H      -1.272584   -0.467358   -2.657592
H      -1.786734    0.393366   -1.194341
H       2.294612   -0.995656   -1.378648
H       1.292649   -1.142031   -2.839822
H       1.799374    0.450321   -2.278450
H       0.554399   -2.244253    0.075678
H      -1.138300   -1.736299   -0.008042
H       0.637297   -3.984906   -3.081884
H       1.417881   -3.771826   -1.437833
H      -0.670423   -4.428425   -0.274784
H      -1.551089   -4.668049   -1.863598
