19

C      -0.080615    1.541679    0.072180
C       1.456544    1.284246    0.090498
C       1.162320    0.125779    1.094385
C       0.072266   -0.005993   -0.013650
C       1.208461    0.260706   -1.048310
C       0.875550    0.692292   -2.496937
O       1.831434    0.020955   -3.304244
C       2.185979   -1.120311   -2.566870
O       2.207731   -0.733681   -1.215425
H      -0.503323    1.920236    1.005007
H      -0.503163    2.064412   -0.789455
H       2.255072    2.025695    0.141714
H       1.901137   -0.671629    1.157195
H       0.801811    0.432212    2.079645
H      -0.725428   -0.747731   -0.080896
H      -0.147772    0.392561   -2.770061
H       0.983539    1.766002   -2.666689
H       1.453005   -1.933851   -2.726189
H       3.184635   -1.448969   -2.867689
