16

O      -0.282815    1.443750    0.013129
N       0.006236    0.072028    0.094204
C      -1.061973   -0.615405    0.066315
C      -2.498025   -0.154587   -0.034863
O      -3.251053   -1.333812   -0.259793
C      -2.556031   -2.427558    0.331471
C      -1.065627   -2.127182    0.114636
C      -0.510451   -2.707806   -1.190378
O      -1.064051   -3.542046   -1.853006
H       0.592761    1.844068    0.047580
H      -2.793560    0.355634    0.897211
H      -2.659947    0.541974   -0.862620
H      -2.783430   -2.506037    1.405143
H      -2.869559   -3.340110   -0.177951
H      -0.418881   -2.495007    0.919682
H       0.477470   -2.287040   -1.475433
