19

O       0.604599    0.622990   -1.108214
C       0.154637    0.101485    0.122171
C       1.205061   -0.488042    1.032554
C       0.627326    0.883693    1.311911
C      -1.212904   -0.540748    0.043127
C      -2.367547   -0.278232    1.056058
C      -2.558197    1.153389    0.495099
C      -2.401585    0.158959   -0.675922
O      -3.317368   -0.770048    0.032785
H       0.756033   -0.119178   -1.704604
H       0.923668   -1.308735    1.684642
H       2.217268   -0.532998    0.646590
H       1.254756    1.742516    1.103132
H      -0.036127    0.998314    2.161368
H      -1.156226   -1.599068   -0.232297
H      -2.492441   -0.651966    2.073302
H      -3.564017    1.556309    0.617977
H      -1.774318    1.893378    0.655784
H      -2.563630    0.309564   -1.742887
