12

C      -0.054214    1.364892    0.077109
O       0.029911   -0.071227   -0.045726
C       0.646314   -0.497082   -1.131390
O       1.138432    0.131283   -2.015807
N       0.657122   -1.942093   -1.123788
N       0.132200   -2.730213   -0.178142
N       0.367248   -3.928859   -0.572891
N       1.038538   -3.884638   -1.764330
N       1.216451   -2.659401   -2.102523
H       0.947761    1.797027    0.108352
H      -0.606445    1.780908   -0.767665
H      -0.583001    1.539348    1.012057
