23

C      -0.001047    1.535262   -0.028731
C       0.022824   -0.000074    0.002552
C       0.848875   -0.488568    1.201113
C      -1.410107   -0.579468    0.009941
C      -2.284747   -0.157691   -1.202251
C      -3.166757   -1.382049   -1.559730
O      -3.380090   -1.563036   -2.954446
C      -2.443506   -2.521853   -0.883065
C      -1.500281   -2.092220   -0.047219
H       1.015428    1.941666   -0.049749
H      -0.531584    1.920035   -0.904419
H      -0.498369    1.934022    0.864035
H       0.512772   -0.353338   -0.916889
H       0.960978   -1.576374    1.213139
H       1.854449   -0.055641    1.181211
H       0.380233   -0.189472    2.146603
H      -1.888489   -0.235501    0.941862
H      -2.871032    0.745957   -1.022204
H      -1.637543    0.044512   -2.065389
H      -4.180482   -1.272191   -1.152853
H      -2.522380   -1.754001   -3.350711
H      -2.718051   -3.555964   -1.061705
H      -0.883124   -2.735251    0.570569
