16

N      -0.231449   -1.112504   -0.099191
C      -0.126810    0.037698   -0.098682
C       0.019318    1.490189   -0.076479
C       1.500969    1.954092    0.034074
C       2.258442    1.553875   -1.154519
N       2.848829    1.284820   -2.110713
C       1.562632    3.465729    0.255819
C       2.735207    4.279833   -0.138442
N       1.451557    4.418295   -0.852753
H      -0.437919    1.917059   -0.974478
H      -0.530163    1.885898    0.783959
H       1.949307    1.455138    0.902000
H       1.003701    3.763468    1.141392
H       3.019227    5.134618    0.467515
H       3.555312    3.782365   -0.647820
H       1.512952    3.934609   -1.747499
