18

C      -0.355636    1.370078   -0.200124
C       0.059605   -0.051847    0.079897
N       0.558333   -0.532232    1.141678
O      -0.172955   -0.814800   -1.018391
C       0.086846   -2.230709   -0.927540
O      -1.059433   -2.918969   -0.496812
C      -1.655147   -3.613448   -1.591208
C      -0.656780   -3.502073   -2.707411
C       0.351254   -2.730134   -2.320499
H      -0.139302    2.017733    0.651065
H       0.166995    1.747831   -1.084097
H      -1.427346    1.409316   -0.418253
H       0.667780    0.192817    1.846072
H       0.882102   -2.371571   -0.193708
H      -1.841661   -4.651041   -1.283585
H      -2.626337   -3.168583   -1.858097
H      -0.783928   -3.982416   -3.668948
H       1.221782   -2.435722   -2.890141
