23

C       0.013629    1.501577    0.214149
C      -0.115223    0.010489   -0.117560
C       0.699859   -0.452968   -1.329859
C       0.256068    0.203864   -2.637404
C       2.274125   -0.428795   -1.169188
C       2.273543   -1.948504   -1.341226
O       1.457282   -2.486190   -0.288053
C       0.807951   -2.003244   -1.474996
C      -0.112117   -2.939512   -2.190733
H       1.058923    1.784575    0.380002
H      -0.378714    2.137279   -0.585989
H      -0.541390    1.743397    1.125925
H       0.203288   -0.584018    0.744682
H      -1.173648   -0.230571   -0.289751
H       0.435614    1.283219   -2.620295
H       0.803789   -0.205353   -3.493809
H      -0.813676    0.046583   -2.818410
H       2.771648    0.108772   -1.980574
H       2.664387   -0.081735   -0.208952
H       3.046381   -2.596718   -1.740663
H      -1.063353   -3.038075   -1.655098
H      -0.331657   -2.582914   -3.201628
H       0.339424   -3.932837   -2.260414
