13

C      -0.016155    1.501102    0.033133
C      -0.023344   -0.003589    0.021485
O      -0.047347   -0.703494    1.010551
C      -0.000673   -0.680303   -1.306675
N       0.025154   -0.083317   -2.455435
O       0.038768   -1.112116   -3.405506
C       0.019632   -2.351932   -2.778361
O       0.025618   -3.404463   -3.339812
N      -0.005189   -2.039513   -1.430937
H       0.874376    1.877288   -0.480311
H      -0.880252    1.886168   -0.517523
H      -0.036167    1.852990    1.064401
H      -0.023535   -2.696967   -0.669046
