19

C      -0.330998    1.684371    0.000959
C       0.047825    0.201864    0.025806
C      -1.210557   -0.678592   -0.033737
O      -1.902431   -0.390924   -1.238339
C       0.998625   -0.181117   -1.131891
O       1.794421   -1.280965   -0.658036
C       1.802894   -1.321675    0.702377
O       2.443539   -2.123237    1.317074
C       0.896512   -0.216413    1.236873
H       0.560461    2.318879    0.033650
H      -0.895889    1.923389   -0.903513
H      -0.957643    1.939455    0.862252
H      -0.920456   -1.739733    0.012491
H      -1.836995   -0.465725    0.847132
H      -2.638943   -1.002820   -1.322105
H       0.461252   -0.506686   -2.023316
H       1.666688    0.646980   -1.396456
H       1.530463    0.606239    1.587217
H       0.327097   -0.577283    2.096528
