19

O       0.324578    1.385004    0.051807
C       0.138771   -0.006687    0.087019
C       0.152588   -0.641547    1.537897
C      -1.353755   -0.655493    1.430460
C      -2.486751   -0.250933    1.994521
C      -3.497318    0.083333    0.902472
C      -2.621184    0.321041   -0.363639
O      -2.365701    1.728235   -0.420808
C      -1.354997   -0.525410   -0.068521
H      -0.466933    1.789256    0.434965
H       0.861026   -0.436954   -0.611602
H       0.609604   -1.636877    1.535216
H       0.609069   -0.035736    2.324481
H      -2.678476   -0.085054    3.048125
H      -4.219359   -0.726298    0.731635
H      -4.075170    0.987083    1.122426
H      -3.136182    0.007093   -1.280956
H      -1.776021    1.886594   -1.166902
H      -1.370927   -1.476239   -0.614274
