15

C      -0.070921    1.540789    0.020559
C       0.159235    0.061262   -0.016926
O      -0.679692   -0.788274    0.785315
C       0.721973   -0.771076    1.084152
C       1.420152   -1.965667    0.477430
O       2.262273   -2.634794    1.013721
C       0.929620   -2.079914   -0.970057
C       0.484533   -0.655584   -1.317896
O       0.458812   -0.149126   -2.407741
H       0.814691    2.072326   -0.338659
H      -0.906188    1.806287   -0.633512
H      -0.299555    1.867914    1.037029
H       1.018163   -0.366417    2.047171
H       1.702685   -2.451459   -1.643847
H       0.070688   -2.758568   -1.019720
