15

O      -0.018353   -0.004865    0.587270
C      -0.026967    1.153185    0.231941
N       1.044896    1.821044   -0.281844
C       2.360099    1.225190   -0.342517
C       3.024258    1.149210   -1.696731
C       4.265063    1.632009   -1.586252
N       4.532619    2.080940   -0.281024
C       3.405029    1.992367    0.515937
O       3.269697    2.437498    1.628355
H      -0.928253    1.794119    0.271936
H       0.947336    2.803549   -0.484393
H       2.239429    0.224168    0.093731
H       2.580464    0.704826   -2.573793
H       5.044426    1.691861   -2.332621
H       5.333893    2.627661   -0.010512
