22

C      -0.035423    1.567473    0.702661
C       0.003944    0.125267    0.242210
C       0.374599   -0.291009   -1.149842
C       0.749204    0.695818   -2.221635
C       1.393999    0.141731   -3.516535
C       0.193523    0.797704   -4.224215
O      -0.419701    1.137103   -2.962171
N       1.237162   -0.620514   -0.010091
C       2.541494    0.005013    0.158274
H       0.661392    2.218048    0.171902
H      -1.041036    1.972325    0.550611
H       0.191795    1.635365    1.772414
H      -0.750614   -0.488088    0.735697
H      -0.137658   -1.160294   -1.565397
H       1.288415    1.558134   -1.814473
H       2.383776    0.524447   -3.769180
H       1.404445   -0.949095   -3.566081
H       0.437081    1.692201   -4.812578
H      -0.445329    0.142187   -4.826771
H       2.597769    1.079890   -0.062944
H       2.860517   -0.136377    1.196268
H       3.264260   -0.509472   -0.483507
