17

N      -0.007427    1.294702    0.179324
C       0.020531   -0.022945   -0.159921
O       1.027928   -0.580292   -0.554254
C      -1.329820   -0.742965   -0.053627
C      -2.144475   -0.508690   -1.356901
O      -3.528692   -0.704303   -1.186351
C      -1.048539   -2.234924    0.228940
C      -2.226722   -3.086226    0.096230
N      -3.169080   -3.744144   -0.035267
H       0.835888    1.835028    0.074221
H      -0.837586    1.750185    0.515584
H      -1.921315   -0.313781    0.762119
H      -2.023444    0.535298   -1.662645
H      -1.726867   -1.132300   -2.161801
H      -3.703765   -1.648001   -1.093176
H      -0.274308   -2.572591   -0.467591
H      -0.636699   -2.361791    1.235486
