21

C      -0.165779    1.443449   -0.227347
C       0.069038   -0.050197   -0.205556
C       1.488137   -0.625570   -0.170695
O       2.579005    0.233204   -0.045709
C       0.593993   -0.733682    1.024440
O       0.993437    0.032289    2.172795
C       0.640596   -1.069959    3.049630
C       0.114734   -1.916682    1.865693
C      -1.378594   -2.215644    1.851501
H       0.630114    1.969881    0.302292
H      -0.185249    1.815735   -1.256541
H      -1.118010    1.702707    0.246735
H      -0.638061   -0.644017   -0.782566
H       1.701497   -1.507506   -0.771446
H       2.656613    0.430921    0.899209
H       1.518765   -1.466775    3.570295
H      -0.113764   -0.765630    3.783757
H       0.690499   -2.830946    1.694642
H      -1.964134   -1.307162    2.026724
H      -1.688142   -2.632307    0.887352
H      -1.639437   -2.943760    2.626860
