16

N       0.128678    1.484435    0.076066
C       0.074325    0.086083    0.024300
C      -1.016526   -0.728066    0.107182
O      -0.626908   -2.044370    0.102084
C       0.726334   -2.061870    0.003669
C       1.381905   -3.400137    0.020275
C       1.541009   -3.938886    1.440062
O       2.553041   -4.425486    1.868493
C       1.211612   -0.790293   -0.038621
H       0.856852    1.870110   -0.510758
H      -0.752921    1.925425   -0.150803
H      -2.075838   -0.548383    0.174765
H       0.760556   -4.116110   -0.535047
H       2.367936   -3.365087   -0.447814
H       0.626868   -3.843196    2.066822
H       2.249800   -0.501767   -0.102358
