20

C      -0.080156    1.350896    0.499877
C      -0.045500   -0.075561   -0.046076
C      -1.416556   -0.556248   -0.507660
O       0.822266   -0.158319   -1.201135
C       2.133067   -0.542408   -0.969639
C       2.429400   -2.009132   -0.688217
C       2.746445   -1.420116   -2.035074
C       2.995817    0.442473   -0.342508
N       3.683685    1.224116    0.162070
H       0.908001    1.680690    0.827269
H      -0.436297    2.040559   -0.271735
H      -0.760508    1.409661    1.355625
H       0.341380   -0.757505    0.723511
H      -1.786596    0.079713   -1.317971
H      -1.366836   -1.584664   -0.875767
H      -2.134479   -0.515428    0.316817
H       3.244849   -2.249104   -0.016402
H       1.558613   -2.649474   -0.610770
H       2.082976   -1.653511   -2.859092
H       3.782232   -1.248430   -2.301041
