15

N       0.061467    1.350438    0.172395
C      -0.058146   -0.009261    0.058504
C      -1.238068   -0.694118    0.003142
C      -1.182143   -2.115928   -0.051038
N      -2.360381   -2.814130   -0.153185
C       0.036768   -2.763748   -0.046666
C       1.266659   -2.059405   -0.000210
O       2.399907   -2.457727    0.003733
O       1.126240   -0.612831    0.053610
H       0.965401    1.721409   -0.077626
H      -0.726095    1.904919   -0.121549
H      -2.181493   -0.164332   -0.000918
H      -3.201493   -2.355969    0.157723
H      -2.328339   -3.801500    0.044372
H       0.104743   -3.843249   -0.088208
