23

C      -0.152824    1.558311   -0.492159
C      -0.044841    0.225865    0.260178
C      -1.354779   -0.524051    0.255341
O      -1.751408   -1.112511   -0.987670
C      -1.488812   -1.989053    0.114881
C      -0.334397   -2.961046   -0.021685
C       0.030635   -3.316109   -1.451961
C       0.765041   -2.941936    1.020398
C      -0.254614   -4.051909    1.019932
H       0.802055    2.092098   -0.488435
H      -0.445724    1.387540   -1.532295
H      -0.903962    2.212550   -0.036039
H       0.733674   -0.397833   -0.188012
H       0.252150    0.407887    1.301394
H      -2.171954   -0.004252    0.764116
H      -2.400815   -2.432723    0.522238
H       0.320062   -2.427062   -2.018616
H       0.862208   -4.027414   -1.471833
H      -0.817976   -3.772811   -1.973093
H       1.776412   -3.168211    0.698174
H       0.706288   -2.205916    1.814592
H      -0.996823   -4.054018    1.812809
H       0.053673   -5.041221    0.698647
