17

C       0.028329    1.515624   -0.218276
C      -0.003889    0.023921   -0.044632
C      -1.134356   -0.690733   -0.015658
C      -1.192331   -2.175786    0.155890
C       0.147809   -2.871255    0.303443
O       0.262143   -4.068421    0.450344
N       1.255124   -2.046720    0.260257
C       1.301197   -0.655055    0.098632
N       2.383168    0.024374    0.071208
H       0.608049    1.792425   -1.103847
H      -0.984010    1.915464   -0.315068
H       0.522588    1.996261    0.631228
H      -2.088327   -0.180595   -0.121990
H      -1.794156   -2.446863    1.033610
H      -1.709298   -2.649112   -0.689579
H       2.136067   -2.535205    0.360852
H       3.208886   -0.567635    0.180962
