12

N       0.233438   -1.148580    0.042829
C       0.100060   -0.000381    0.029657
C      -0.055740    1.461262   -0.000683
C      -0.595158    2.053509    1.353541
N       0.567354    2.650103    2.021813
C       1.514722    2.644266    1.172385
N       1.238160    2.153287   -0.102406
H      -0.705511    1.715643   -0.842265
H      -1.341658    2.829101    1.149957
H      -1.062663    1.291845    1.980837
H       2.504478    3.044270    1.370619
H       1.978442    1.696376   -0.616625
