20

C       0.206395    1.385745   -0.108231
C      -0.206855   -0.060302   -0.370166
C      -1.554460   -0.430572    0.232906
O      -2.272417    0.390809    0.760168
C      -1.954265   -1.896653    0.141030
C      -3.417091   -2.132057    0.530159
N      -3.773333   -3.545294    0.559472
C      -3.913352   -4.280213   -0.571631
O      -3.721762   -3.860158   -1.695192
H       1.164682    1.606633   -0.586275
H      -0.543975    2.079392   -0.494760
H       0.303352    1.577640    0.963779
H      -0.270554   -0.263388   -1.448753
H       0.544135   -0.768967    0.004741
H      -1.775250   -2.271615   -0.872073
H      -1.285816   -2.470731    0.798202
H      -3.617736   -1.704187    1.513515
H      -4.066243   -1.619529   -0.185698
H      -3.964537   -3.986028    1.444050
H      -4.225764   -5.322237   -0.358464
