19

C      -0.000745   -1.205386   -0.113453
C      -0.022970   -0.006601   -0.025335
C      -0.014922    1.448593    0.081082
C       1.404455    2.048976    0.051245
C       2.172740    1.742417   -1.258948
O       3.059888    2.834909   -1.488548
C       2.524302    3.969051   -0.858565
C       1.092201    4.345639   -1.134304
C       1.463062    3.568489    0.122663
H       0.005762   -2.264233   -0.192430
H      -0.606339    1.880803   -0.736373
H      -0.515089    1.749115    1.010094
H       1.965876    1.647308    0.902509
H       2.766704    0.827466   -1.208846
H       1.467782    1.636982   -2.096946
H       3.277361    4.724968   -0.670959
H       0.819276    5.387107   -1.002712
H       0.561201    3.846916   -1.938278
H       1.361006    4.048202    1.089168
