17

C      -0.009971    1.570473    0.047626
C       0.021271    0.073556    0.014616
C       0.624180   -0.788060   -1.098644
N       1.248559   -1.703198   -0.090910
C       0.650815   -0.943699    1.001844
C       1.283624   -0.756545    2.267405
N       1.750787   -0.613006    3.317391
C      -0.864843   -0.796768    0.861040
O      -1.535139   -0.117129    1.867009
H       0.982495    1.989358   -0.144576
H      -0.692117    1.951239   -0.721683
H      -0.362866    1.928350    1.016240
H      -0.097709   -1.254807   -1.778860
H       1.389557   -0.273342   -1.687508
H       0.922350   -2.666215   -0.138718
H      -1.405816   -1.633837    0.408102
H      -1.452554   -0.612490    2.690263
