16

C      -0.025145    1.519567    0.015672
C      -0.009980    0.022484    0.016004
C      -0.025710   -0.805086   -1.062516
O      -0.003988   -2.109607   -0.681774
C       0.026513   -2.117836    0.678328
C       0.024599   -0.850137    1.165200
C       0.052574   -0.443502    2.602525
O       0.086315   -1.613245    3.404098
H       0.863083    1.934626    0.507205
H      -0.052083    1.912609   -1.004323
H      -0.898558    1.916821    0.546862
H      -0.051325   -0.623779   -2.124979
H       0.047081   -3.083421    1.152124
H       0.932144    0.195612    2.793422
H      -0.833543    0.172619    2.834327
H       0.100660   -1.343614    4.326461
