15

O       0.060566    1.347310   -0.015355
C       0.057974   -0.011016   -0.037489
C      -0.011611   -0.696903   -1.248834
C      -0.020233   -2.089424   -1.236619
C       0.023300   -2.814051   -0.048198
C       0.092897   -2.124834    1.161266
O       0.129196   -2.802567    2.338027
C       0.132198   -0.729885    1.156302
O       0.176527   -0.039417    2.372935
H      -0.009538    1.610851    0.912382
H      -0.062880   -0.133349   -2.172251
H      -0.075297   -2.624593   -2.178710
H      -0.000736   -3.896752   -0.038037
H       0.054317   -2.143284    3.041464
H       1.100506    0.112319    2.609409
