18

O       0.792696   -0.198907    0.619691
C      -0.153203    0.427383   -0.232884
C      -1.540557   -0.182582   -0.135918
C      -2.657181    0.484040   -0.541938
C      -3.981255   -0.095670   -0.399850
O      -5.012305    0.449201   -0.756874
C      -4.014640   -1.445038    0.337184
C      -2.750662   -2.269706    0.094169
N      -1.572926   -1.451661    0.350560
H       0.573986    0.033941    1.528471
H      -0.213452    1.509277   -0.062285
H       0.227900    0.278964   -1.250038
H      -2.581132    1.495276   -0.924197
H      -4.115483   -1.226128    1.408876
H      -4.906631   -1.994397    0.028948
H      -2.719705   -3.150167    0.742275
H      -2.740873   -2.622218   -0.950444
H      -0.674162   -1.897575    0.459075
