15

C       0.079621    1.322540    0.007003
O      -0.071359   -0.103481    0.000530
C      -1.327912   -0.557193    0.011970
N      -2.339731    0.198470    0.026472
N      -1.303597   -1.972436    0.004831
C      -0.203700   -2.806193   -0.004683
N      -0.569893   -4.054468   -0.008447
N      -1.959654   -4.079654   -0.002035
C      -2.369067   -2.845326    0.005534
H       1.155114    1.497309   -0.003335
H      -0.394501    1.759655   -0.874581
H      -0.375833    1.749650    0.903218
H      -3.220444   -0.305198    0.034620
H       0.805400   -2.431949   -0.007756
H      -3.399081   -2.527298    0.011352
