23

C      -0.087344    1.575953    0.162454
C      -0.065524    0.045744    0.116933
C      -1.457286   -0.571375   -0.065160
C      -1.448985   -2.093776   -0.099847
C      -1.118322   -2.867050    1.219127
C      -2.264205   -3.817265    0.871860
C      -2.261660   -5.280343    0.839444
O      -3.033078   -4.549707    1.805720
C      -2.820681   -2.838011   -0.161592
H       0.918733    1.987232    0.291066
H      -0.502326    1.993531   -0.761748
H      -0.703707    1.938228    0.992782
H       0.586873   -0.288302   -0.700900
H       0.384153   -0.342032    1.040287
H      -2.115185   -0.234536    0.748794
H      -1.905096   -0.190962   -0.994141
H      -0.797421   -2.442993   -0.908651
H      -0.118623   -3.292239    1.335122
H      -1.355854   -2.271620    2.107791
H      -2.842151   -5.808960    0.083681
H      -1.412377   -5.831733    1.242339
H      -3.628749   -2.232686    0.263445
H      -3.146893   -3.238470   -1.124570
