21

C       0.426468    1.478262    0.158474
C      -0.073253    0.058985   -0.077647
C       0.549024   -0.667008   -1.294743
C       1.558121   -1.667259   -0.693931
C       1.468321   -3.071528   -1.307264
C       3.014419   -1.162782   -0.757633
C       1.143839   -1.728360    0.783148
O       1.541214   -2.498695    1.611095
O       0.243959   -0.756928    1.071810
H       1.518426    1.510463    0.221189
H       0.110390    2.128082   -0.663936
H       0.017738    1.876783    1.090819
H      -1.165515    0.069188   -0.144252
H      -0.227631   -1.197983   -1.851709
H       1.019146    0.039840   -1.983024
H       1.803513   -3.056771   -2.349525
H       2.097891   -3.767265   -0.746526
H       0.442327   -3.452170   -1.284708
H       3.120793   -0.161108   -0.330365
H       3.672671   -1.836635   -0.202611
H       3.352300   -1.123929   -1.798338
