14

O      -0.141751    0.050693   -0.289277
C      -0.065599    1.195803    0.012715
O      -1.234031    1.997833    0.191932
C      -0.630658    3.080036    0.815495
N      -0.593171    3.172603    2.079401
C       0.803349    3.536054    2.405814
C       1.570703    3.265858    1.107976
C       1.167353    2.094128    0.089188
C       0.602891    3.485782    0.018553
H       0.937918    4.579720    2.720794
H       1.097251    2.895598    3.243069
H       2.610526    3.562350    1.016072
H       1.991811    1.757802   -0.529471
H       0.613354    4.160017   -0.828073
