23

C       0.353427    1.348844    0.380220
C      -0.205821    0.030365   -0.171139
C       0.592178   -0.528290   -1.343257
C       0.439774    0.253663   -2.639750
C       1.967883   -1.106357   -1.146198
O       2.115098   -1.702721    0.145730
C       1.106210   -2.689014   -0.190840
C       0.830200   -2.033007   -1.545084
C       0.504215   -2.829078   -2.777660
H       1.377668    1.208089    0.738830
H       0.364886    2.142237   -0.373916
H      -0.251145    1.705334    1.220155
H      -0.233656   -0.694834    0.645447
H      -1.246491    0.171151   -0.492191
H       0.606971    1.321312   -2.467946
H       1.157877   -0.066017   -3.400898
H      -0.565368    0.137367   -3.061451
H       2.868729   -0.773487   -1.653137
H       1.563562   -3.680883   -0.296542
H       0.298713   -2.739824    0.549541
H      -0.503963   -3.257149   -2.709435
H       0.536795   -2.223313   -3.685997
H       1.205773   -3.661250   -2.906971
