16

O       0.232043    1.302624   -0.336235
C       0.029598   -0.066489   -0.115132
C       0.219249   -0.487445    1.388420
O       0.675455    0.532646    2.246950
C      -1.290399   -0.778491    1.490811
O      -2.076348    0.397856    1.752656
C      -2.439677    0.529296    0.352253
C      -1.455419   -0.570960   -0.047223
H       0.282255    1.703734    0.544612
H       0.643190   -0.627791   -0.827142
H       0.807022   -1.408939    1.490191
H       1.638209    0.524077    2.243356
H      -1.621841   -1.643100    2.073088
H      -3.494948    0.275057    0.193080
H      -2.231391    1.528787   -0.040332
H      -1.761770   -1.337916   -0.756085
