18

C       0.181133    1.702230    0.392178
C       0.044203    0.197452    0.449195
C       1.036956   -0.786594   -0.106143
N       2.427914   -0.361683    0.087013
C       2.252998   -0.216214    1.474217
O       2.985358    0.175430    2.339254
C       0.816031   -0.731768    1.398461
C       0.182714   -1.712837    2.353972
O      -1.144749   -2.071892    2.000472
H       1.222724    2.023501    0.475807
H      -0.217285    2.088591   -0.552169
H      -0.374482    2.176248    1.207666
H      -0.976873   -0.164123    0.331592
H       0.799215   -1.593430   -0.787293
H       2.903296    0.327302   -0.485480
H       0.756429   -2.646204    2.357830
H       0.232872   -1.303149    3.373365
H      -1.725595   -1.351926    2.264624
