23

C       0.036503    1.508603   -0.299536
C      -0.029385    0.054259    0.188243
C      -1.422686   -0.530550    0.139169
C      -2.005669   -1.078992   -1.145416
C      -1.736965   -2.012545    0.012670
C      -0.707667   -3.111295   -0.077212
C      -2.940288   -2.236064    0.917034
O      -3.518600   -0.955091    1.133900
C      -2.469923    0.006195    1.106861
H       1.062894    1.887130   -0.269564
H      -0.325414    1.592170   -1.329510
H      -0.577890    2.168523    0.321786
H       0.645414   -0.558098   -0.420948
H       0.352371   -0.002058    1.217004
H      -3.035150   -0.840750   -1.396675
H      -1.336318   -1.150477   -1.997517
H       0.154878   -2.809127   -0.678114
H      -0.340850   -3.399033    0.915242
H      -1.130351   -4.008236   -0.545294
H      -3.716601   -2.875083    0.480859
H      -2.611802   -2.693772    1.866665
H      -2.018663    0.134436    2.106598
H      -2.916689    0.960841    0.808676
