20

C      -1.511179   -0.231062    0.014369
C       0.009951   -0.093998    0.087766
C       0.736440   -0.624832   -1.169461
C       2.236622   -0.287363   -1.137545
O       2.364039    1.126462   -1.137402
C       0.555232   -2.065126   -1.347037
C       0.426075   -3.256413   -1.472428
C       0.261404   -4.694372   -1.635812
H      -1.918495    0.335685   -0.830583
H      -1.807503   -1.276887   -0.111845
H      -1.983430    0.147809    0.926047
H       0.291900    0.955703    0.210471
H       0.392045   -0.634363    0.962942
H       0.320258   -0.104309   -2.044483
H       2.688796   -0.735278   -0.239015
H       2.725986   -0.733530   -2.015386
H       3.296036    1.345134   -1.051382
H       1.166885   -5.155040   -2.046413
H       0.047281   -5.183823   -0.679155
H      -0.564499   -4.926220   -2.317577
