19

C      -0.115492    1.582734    0.046940
C      -0.022364    0.057152    0.036335
C      -1.430106   -0.529705   -0.141056
O      -2.030288   -0.147964   -1.371747
C       1.127909   -0.624250   -0.820433
C       2.132880   -0.168500    0.294979
C       0.888928   -0.665053    1.111263
C       0.934689   -1.832710    0.110870
O       0.908754   -3.024130    0.080257
H       0.843959    2.098974    0.005909
H      -0.709357    1.901905   -0.813400
H      -0.637418    1.919413    0.949656
H      -1.416243   -1.623263   -0.034378
H      -2.087951   -0.135687    0.642064
H      -1.578706   -0.621134   -2.077991
H       1.276220   -0.591575   -1.898800
H       3.051888   -0.748384    0.396134
H       2.335715    0.898463    0.344745
H       0.762879   -0.680333    2.192355
