20

C      -0.227137    1.601418   -0.083233
C       0.045311    0.109908    0.014979
N       1.088736   -0.545821   -0.891146
C       2.327410    0.194199   -0.483089
C       2.376235   -0.265294    0.980052
C       2.565696   -1.790518    0.760647
C       1.160453   -1.694425    0.167068
C       0.802304   -0.563828    1.159268
O       0.302621   -0.826375    2.429624
H       0.594125    2.218831    0.290574
H      -0.424639    1.887632   -1.121983
H      -1.117248    1.849364    0.504367
H      -0.888882   -0.438268   -0.153251
H       3.186367   -0.149032   -1.067101
H       2.212868    1.265314   -0.648680
H       2.950847    0.292506    1.720113
H       3.406368   -2.124948    0.146325
H       2.525775   -2.356335    1.694360
H       0.515461   -2.535519   -0.079125
H       0.461942   -0.058165    2.988214
