17

N       0.052751    1.323981    0.112764
C      -0.024838   -0.043301    0.017359
N      -1.086405   -0.786033    0.055403
C      -0.584884   -2.094248    0.003816
C       0.763933   -2.044100   -0.077019
O       1.145259   -0.710702   -0.060409
C      -1.492356   -3.255337    0.040793
C      -0.970037   -4.651090    0.269207
C      -1.771641   -3.973016    1.348093
H       0.843858    1.736234   -0.359861
H      -0.823282    1.779665   -0.095312
H       1.558984   -2.761983   -0.164046
H      -2.346320   -3.158745   -0.623095
H      -1.428874   -5.459426   -0.288734
H       0.093454   -4.779275    0.437677
H      -1.241841   -3.624162    2.227099
H      -2.784960   -4.310950    1.534002
