16

N      -0.148749    1.296016    0.246792
C       0.049829   -0.028125   -0.029206
O       1.134431   -0.531405   -0.252373
C      -1.213462   -0.828648   -0.066714
C      -2.389593   -0.458539   -0.891401
N      -2.513859   -0.338185    0.566588
C      -2.722539   -1.746334    1.074150
C      -1.368136   -2.237878    0.493910
H       0.670602    1.861053    0.403623
H      -1.010867    1.561548    0.699179
H      -2.361948    0.499269   -1.400536
H      -2.941385   -1.240719   -1.410303
H      -2.763463   -1.743734    2.164351
H      -3.632868   -2.210427    0.681937
H      -1.386022   -3.050560   -0.236075
H      -0.629665   -2.470589    1.261639
