14

O      -0.262793    1.406676    0.083829
C      -0.088006    0.030459   -0.022621
C      -1.272148   -0.846602   -0.001610
C      -0.392865   -0.751648   -1.298585
C      -1.558977   -0.143941   -2.005532
O      -1.812049    0.085866   -3.146990
C      -2.451522   -0.129797   -0.699826
C      -3.661784   -0.917112   -0.831439
N      -4.619512   -1.556050   -0.936010
H       0.431848    1.847048   -0.417731
H       0.782714   -0.365181    0.500786
H      -1.388046   -1.698965    0.653098
H       0.325039   -1.437343   -1.731021
H      -2.674540    0.865380   -0.309850
