18

C      -0.073422    1.537891   -0.078655
C       0.088188    0.034296    0.023972
C       1.374054   -0.723566   -0.202001
C       2.554124   -0.005860    0.413084
O       3.070605   -0.801114    1.493445
C       1.909589    0.012927    1.746162
C       1.980580    0.979480    2.885378
C       0.696085   -0.712967    1.188741
H       0.792720    2.074662    0.314143
H      -0.205416    1.839052   -1.123778
H      -0.957089    1.872206    0.476208
H      -0.765255   -0.505497   -0.386275
H       1.442143   -1.562732   -0.883800
H       3.237699    0.706052   -0.035514
H       2.950804    1.482626    2.901082
H       1.190086    1.732590    2.811349
H       1.855686    0.457658    3.841038
H       0.190507   -1.541796    1.670655
