14

N       0.034623    1.394375    0.165684
C      -0.036912    0.018045    0.060870
C      -1.200715   -0.688116    0.036846
C      -1.198881   -2.131721   -0.003869
N      -2.276318   -2.833047   -0.022307
N       0.101648   -2.673496   -0.029213
N       1.264156   -2.012001   -0.012665
C       1.207565   -0.719824    0.033361
H       0.865408    1.827398   -0.207873
H      -0.807665    1.901624   -0.060098
H      -2.171787   -0.207723    0.050794
H      -2.072605   -3.833084   -0.055882
H       0.202647   -3.676918   -0.062547
H       2.160329   -0.200234    0.056388
