19

C      -0.194567    1.454196   -0.006598
C       1.205918    0.910132   -0.000932
C       0.023608   -0.040658    0.025722
C      -0.284561   -0.883004    1.212077
C      -0.657932   -2.120953    0.876784
C      -0.696681   -2.312787   -0.616094
C      -2.066448   -2.070088   -1.296414
O      -1.703558   -0.715496   -1.634822
C      -0.343975   -0.904351   -1.172001
H      -0.568251    1.928283    0.894884
H      -0.587100    1.874554   -0.925787
H       1.783185    0.963862   -0.918805
H       1.796852    1.008496    0.903764
H      -0.198098   -0.505923    2.226032
H      -0.925445   -2.904832    1.576344
H      -0.136786   -3.180349   -0.973444
H      -2.245704   -2.678388   -2.193255
H      -2.948674   -2.112374   -0.647224
H       0.366448   -0.831160   -2.003520
