23

C      -0.029663    1.720130   -0.466942
C       0.095013    0.222145   -0.160739
C      -1.256117   -0.467753   -0.169395
C      -1.821527   -1.181905   -1.358934
O      -0.794834   -1.886587   -2.067155
C      -0.632575   -2.799204   -0.940119
C       0.802309   -3.100809   -0.554536
C      -1.580135   -1.957834   -0.075992
C      -2.518703   -2.534236    0.944949
H       0.951160    2.205630   -0.469992
H      -0.487133    1.882466   -1.448510
H      -0.651296    2.230100    0.277831
H       0.738513   -0.244843   -0.910637
H       0.581940    0.086124    0.813436
H      -2.029677    0.094358    0.356646
H      -2.722256   -0.924457   -1.906407
H      -1.140090   -3.741643   -1.197026
H       1.335772   -3.533291   -1.407574
H       1.342853   -2.214065   -0.221662
H       0.816055   -3.838315    0.255775
H      -1.999594   -2.763764    1.883750
H      -3.325193   -1.833396    1.183295
H      -2.979250   -3.461630    0.584543
