22

C      -1.185130    0.912477   -0.738906
C      -0.162536   -0.199168   -0.628281
O       1.048298    0.084904   -1.367600
C       1.886089   -0.245197   -0.235105
C       2.924157    0.820146    0.049763
C       0.643525   -0.381797    0.686810
N       0.481772    0.684588    1.654460
C      -0.485903    0.445730    2.722148
C       0.974420    0.412936    3.002388
H      -0.788993    1.845616   -0.334435
H      -1.445875    1.063452   -1.791264
H      -2.100289    0.652154   -0.196072
H      -0.599166   -1.150223   -0.968329
H       2.375914   -1.217068   -0.397346
H       2.447296    1.772911    0.286644
H       3.561257    0.524960    0.890550
H       3.562110    0.950900   -0.830100
H       0.532501   -1.376136    1.148888
H      -1.086313    1.301917    3.014967
H      -1.015049   -0.506138    2.727555
H       1.422265   -0.560873    3.195281
H       1.460346    1.244726    3.503677
