18

O       0.015843    1.405420    0.316452
C       0.008862    0.033306    0.016844
C       0.952809   -0.542326   -1.000425
C       1.115313   -0.869534    0.479237
C      -1.420440   -0.448080    0.085220
C      -2.363724   -0.064007   -1.077307
C      -2.506036   -1.585681   -1.271676
O      -1.546904   -1.853778   -0.221606
H       0.924865    1.719455    0.311359
H       0.595497   -1.334330   -1.648650
H       1.673781    0.129996   -1.455529
H       1.944553   -0.416007    1.014204
H       0.858978   -1.872355    0.801362
H      -1.821157   -0.218226    1.081725
H      -3.271444    0.471110   -0.797782
H      -1.867550    0.462073   -1.893823
H      -3.491754   -2.001758   -1.030031
H      -2.177248   -1.990570   -2.235852
