19

C      -0.075414    1.344719    0.120137
O       0.029384   -0.050385   -0.043867
C       0.696954   -0.528966   -1.218508
C      -0.040503   -0.117139   -2.499769
C       2.167770   -0.092564   -1.255247
C       0.607314   -2.052171   -1.029299
O       1.234385   -2.690219   -2.131794
H       0.903863    1.838577    0.191177
H      -0.647615    1.825570   -0.685709
H      -0.608565    1.505801    1.060978
H       0.078311    0.948302   -2.716213
H       0.355406   -0.682016   -3.346757
H      -1.109025   -0.335707   -2.406489
H       2.644222   -0.290954   -0.289936
H       2.697376   -0.658404   -2.024998
H       2.273615    0.972000   -1.482520
H       1.095365   -2.311321   -0.078621
H      -0.454019   -2.328466   -0.949818
H       1.172088   -3.640271   -2.003232
