16

O      -0.183438    1.380731   -0.173757
C      -0.049617   -0.022579   -0.081512
C       0.699381   -0.584311   -1.216592
C       1.328677   -1.046881   -2.129943
C       0.638360   -0.435130    1.226844
N       1.518634    0.568648    1.798741
C       0.324578    0.157752    2.570961
C      -0.730460    1.189207    2.821725
O      -1.509311    1.091360    3.737814
H       0.661105    1.741718    0.135825
H      -1.067313   -0.431671   -0.094394
H       1.871673   -1.448616   -2.949867
H       0.953772   -1.475965    1.245611
H       2.367666    0.171310    2.187683
H       0.462629   -0.512099    3.417033
H      -0.746106    2.038143    2.114778
