19

C      -0.090211    1.384509    0.031434
C       0.025930   -0.100773    0.030172
O      -1.138581   -0.891018   -0.263294
C      -0.385947   -2.038532    0.233281
C      -1.208940   -3.154687    0.789580
C       0.632757   -1.083654    0.968288
C       1.250607   -0.912655   -0.423112
C       0.683074   -2.240363   -0.892816
O       1.599076   -3.282638   -0.622606
H       0.859733    1.838305    0.329071
H      -0.348380    1.756017   -0.965977
H      -0.865085    1.712197    0.731525
H      -1.914610   -3.517571    0.033521
H      -0.559391   -3.982383    1.091172
H      -1.782569   -2.827263    1.661093
H       1.039982   -1.025116    1.968062
H       2.197735   -0.460747   -0.688819
H       0.281801   -2.303194   -1.914729
H       1.187203   -4.110279   -0.890424
