14

C      -0.118294    1.588129   -0.053084
C       0.070693    0.071669   -0.044496
N       0.761664   -0.415458   -1.225643
N       0.159697   -0.485186   -2.441629
N       0.999018   -0.929862   -3.286750
N       2.166950   -1.153551   -2.629147
C       2.083133   -0.838607   -1.283325
O       2.910348   -0.909625   -0.401504
H       0.847319    2.100771   -0.078446
H      -0.702199    1.900344   -0.923000
H      -0.650215    1.900811    0.850105
H       0.688204   -0.245361    0.800012
H      -0.891979   -0.443566    0.018938
H       2.967157   -1.514158   -3.120107
