19

C       0.106053    1.531261   -0.151048
C      -0.075143    0.025334    0.086149
C       0.702508   -0.477624    1.269839
C       2.144008   -0.916131    1.228000
C       1.082130   -1.873268    1.705619
N       0.524733   -1.684308    3.106248
C       1.205743   -0.565006    3.786463
C       0.223159   -0.259576    2.725757
H       1.155336    1.773346   -0.348391
H      -0.487683    1.871166   -1.005143
H      -0.207692    2.109939    0.724511
H      -1.141093   -0.197398    0.230287
H       0.235401   -0.529626   -0.807566
H       2.490568   -1.154251    0.225724
H       2.923666   -0.501071    1.857026
H       0.907036   -2.835902    1.241088
H       0.862840   -0.453845    4.811768
H       2.268894   -0.396205    3.661062
H      -0.752366    0.167396    2.942139
