17

C      -0.439490    1.475155    0.482993
O      -0.253037    0.051488    0.557760
C      -0.943067   -0.670614   -0.328763
O      -1.680790   -0.190997   -1.164155
C      -0.714264   -2.164284   -0.161982
O      -1.912488   -2.800173    0.326291
C      -2.204749   -3.387577   -0.965718
C      -0.818002   -2.962417   -1.505999
O      -0.720687   -2.297627   -2.721373
H       0.204841    1.897242    1.253230
H      -0.155441    1.845048   -0.504817
H      -1.484602    1.731297    0.671218
H       0.145088   -2.352925    0.487079
H      -2.417276   -4.458819   -0.886859
H      -3.036706   -2.879031   -1.467795
H      -0.102816   -3.787351   -1.531174
H      -1.263530   -1.497863   -2.647716
