15

O      -0.058176    1.323262    0.051909
C       0.976214    2.221810   -0.024628
N       2.035334    2.207460   -0.693382
C       2.697175    1.230257   -1.399599
C       3.270962    0.109477   -0.912124
C       3.143397   -0.436670    0.422754
C       2.006220   -0.778518    1.065389
N       0.741620   -0.878537    0.533881
C      -0.052437   -0.048905    0.033510
H       0.682434    3.117708    0.517639
H       2.960663    1.550757   -2.405148
H       3.991980   -0.372865   -1.568772
H       4.068070   -0.703651    0.930108
H       2.086234   -1.255532    2.039724
H      -0.994175   -0.382099   -0.396730
