14

O       0.038246   -0.039841   -0.001573
C       0.006563    1.169616    0.008825
C       1.224143    2.003116    0.002192
C       1.188230    3.368259    0.014230
C       2.425773    4.072771    0.006195
C       3.609116    3.400668   -0.012907
C       3.680753    1.940955   -0.026069
O       4.696257    1.271312   -0.043303
N       2.412618    1.339328   -0.016930
H      -0.944237    1.738463    0.024162
H       0.236759    3.884251    0.029365
H       2.418913    5.158222    0.015492
H       4.561728    3.916535   -0.019303
H       2.379009    0.325269   -0.025203
