18

O       0.053914   -0.021564    0.024663
C       0.060891    1.182654    0.031731
N      -0.943246    2.127595    0.057365
C      -0.057920    3.298555    0.047090
C       1.108904    2.291558    0.017610
C       2.408492    2.418042    0.757563
C       3.150080    1.072575    0.752949
C       3.119032    1.082239   -0.813004
C       2.378158    2.427479   -0.771628
H      -1.947507    2.043101    0.077415
H      -0.159899    3.929028   -0.842918
H      -0.124237    3.917835    0.948261
H       2.568265    3.237711    1.449230
H       4.165133    1.153239    1.147237
H       2.637010    0.243368    1.244355
H       4.117680    1.168042   -1.246180
H       2.586716    0.259019   -1.293895
H       2.510621    3.255634   -1.458942
