18

C       0.034998    1.529061    0.051529
C      -0.018781    0.030671    0.011828
C      -0.050990   -0.654819   -1.135024
N      -0.086391   -2.062576   -1.172820
C      -0.313601   -2.833303   -0.071170
O      -0.203882   -4.047630   -0.054961
C      -0.769887   -2.058358    1.168138
O      -0.636759   -2.869481    2.301737
C      -0.002814   -0.741022    1.313675
H       0.918158    1.875907    0.603849
H       0.074307    1.961147   -0.952485
H      -0.838282    1.948647    0.567183
H      -0.042509   -0.178892   -2.108603
H       0.160280   -2.550329   -2.021091
H      -1.832876   -1.810102    0.983658
H      -0.516733   -3.768381    1.954324
H       1.030854   -0.960060    1.620106
H      -0.446371   -0.155726    2.125298
