15

N      -0.018351    1.407692    0.144889
C       0.004138    0.021464    0.048129
C      -1.187033   -0.713187    0.038419
C      -1.155104   -2.110416    0.001603
C       0.063476   -2.800310   -0.027200
C       1.243675   -2.065697   -0.019059
C       1.221707   -0.677304    0.017378
C      -2.387418   -2.838862   -0.010381
N      -3.384071   -3.428060   -0.021365
H       0.804948    1.881077   -0.195527
H      -0.868418    1.853371   -0.166152
H      -2.142663   -0.200925    0.062665
H       0.073735   -3.882228   -0.057111
H       2.197412   -2.581816   -0.043548
H       2.153825   -0.120299    0.026049
