16

C       0.101944    1.381073    0.941420
C      -0.111998    0.303769   -0.124871
O       0.909494   -0.692863   -0.070714
C      -1.479056   -0.325785   -0.056650
C      -1.795946   -1.625508   -0.406158
N      -3.127533   -1.766480   -0.203522
N      -3.716851   -0.647812    0.256331
C      -2.719184    0.227609    0.346254
H       1.115680    1.781920    0.862250
H      -0.607315    2.206066    0.821153
H      -0.034316    0.965197    1.946244
H       0.029747    0.763574   -1.111677
H       0.814915   -1.146924    0.774851
H      -1.178810   -2.428394   -0.775113
H      -3.689028   -2.588601   -0.346512
H      -2.924291    1.228208    0.697655
