19

N      -0.048324   -1.110437   -0.024745
C       0.000452    0.039497   -0.120026
C       0.053662    1.501525   -0.210293
N       1.395049    1.997104    0.070762
C       1.472999    3.454474    0.037044
C       2.900916    3.928205    0.316441
C       3.014051    5.431998    0.263735
C       4.178778    6.113429   -0.312810
O       2.950500    6.025826   -1.037123
H      -0.223486    1.794945   -1.230659
H      -0.730522    1.910520    0.454238
H       1.696543    1.654076    0.977843
H       1.180093    3.788667   -0.965636
H       0.772891    3.936404    0.746595
H       3.220282    3.582917    1.309754
H       3.576719    3.479030   -0.417994
H       2.437255    5.972749    1.017345
H       4.449789    7.110774    0.030521
H       5.000527    5.521665   -0.714223
