16

O       0.109589    1.402183   -0.217982
C       0.042580    0.023298    0.026044
C       0.203450   -0.911352   -1.199621
O      -1.155173   -1.382622   -1.072522
C      -1.383047   -0.552228    0.089402
C      -1.448772   -1.395314    1.370307
O      -2.397974   -2.006195    1.802414
N      -0.192325   -1.354130    1.923080
C       0.746203   -0.417302    1.332834
H       1.028934    1.645866   -0.375260
H       0.363596   -0.373583   -2.141265
H       0.933053   -1.724700   -1.102481
H      -2.233185    0.123430   -0.025619
H      -0.016716   -1.825069    2.797408
H       1.720648   -0.885327    1.145469
H       0.901701    0.464219    1.968597
