17

C      -0.057066    1.434834   -0.265091
C       0.066457    0.027706    0.317210
O       0.671230    0.028473    1.607570
C      -1.286203   -0.656842    0.383276
O      -1.892398   -1.037821   -0.854768
C      -1.536331   -2.073059    0.075722
C      -0.490269   -3.069161   -0.352104
H       0.922129    1.919691   -0.302208
H      -0.474951    1.394849   -1.275078
H      -0.725083    2.052081    0.349581
H       0.740344   -0.560134   -0.312126
H       0.187409    0.653416    2.159018
H      -1.976386   -0.170858    1.082005
H      -2.403802   -2.521552    0.565319
H       0.349458   -2.589481   -0.858157
H      -0.108420   -3.614294    0.517571
H      -0.927002   -3.798893   -1.041842
