21

C      -0.025509    1.455609    0.017765
C       0.054347   -0.052896   -0.013902
C       0.638439   -0.683805   -1.303523
C      -0.044137   -2.081229   -1.308793
C      -0.842833   -2.021317    0.010163
C       0.117010   -2.128279    1.214607
C       0.747054   -0.701908    1.217054
O       2.156716   -0.656847    1.068041
O      -1.254010   -0.646173    0.067441
H       0.983206    1.879348    0.019197
H      -0.562400    1.836932   -0.855446
H      -0.544968    1.796533    0.918605
H       0.347222   -0.090203   -2.173438
H       1.726760   -0.736047   -1.269070
H      -0.721091   -2.192442   -2.159332
H       0.667102   -2.910935   -1.332205
H      -1.720762   -2.666383    0.054437
H      -0.432459   -2.328065    2.137865
H       0.882895   -2.898876    1.089470
H       0.445012   -0.150547    2.117477
H       2.556207   -0.986752    1.877896
