20

C      -0.015589    1.518513   -0.056610
C      -0.007472    0.016678    0.034277
C       1.269539   -0.765396   -0.182490
C       0.605642   -0.756254    1.181081
O       1.206800   -0.074388    2.240095
C      -0.293594   -1.953712    1.489307
C      -1.416218   -1.830560    0.457768
C      -2.291674   -0.635309    0.548436
N      -1.202880   -0.672282   -0.443934
H       0.872974    1.930605    0.427312
H      -0.033567    1.844930   -1.101275
H      -0.894902    1.937927    0.443698
H       1.233123   -1.669646   -0.782530
H       2.178143   -0.180323   -0.281189
H       2.020732   -0.534334    2.472734
H       0.232890   -2.910271    1.389397
H      -0.662591   -1.884440    2.517931
H      -1.789123   -2.733182   -0.016098
H      -3.293833   -0.653774    0.131069
H      -2.167606    0.006601    1.418499
