23

C       0.345797    1.725325   -0.065819
C       0.074630    0.215129   -0.027998
C       0.696319   -0.489745   -1.240218
C       0.577679   -0.411117    1.280057
C      -0.213555   -0.023023    2.523767
O      -1.298656    0.513932    2.459907
C       0.425762   -0.369964    3.858224
C      -0.489259   -0.129340    5.049420
O       0.241875   -0.476833    6.216773
H       1.422775    1.931427   -0.025253
H      -0.039708    2.167706   -0.990133
H      -0.134220    2.233392    0.774179
H      -1.011508    0.069273   -0.055918
H       1.788190   -0.384701   -1.243149
H       0.465989   -1.560749   -1.245700
H       0.322117   -0.062159   -2.176103
H       0.529553   -1.509210    1.219981
H       1.639786   -0.182678    1.445862
H       0.762397   -1.414530    3.843003
H       1.341681    0.226578    3.969042
H      -0.805646    0.922626    5.062594
H      -1.400112   -0.736698    4.944441
H      -0.320859   -0.314489    6.979280
