16

C       0.005661    1.371413   -0.128435
C       0.054995   -0.126561   -0.311152
O       1.084955   -0.739451   -0.475670
C      -1.282097   -0.862843   -0.263008
N      -2.328210   -0.193860    0.037080
N      -1.226254   -2.194508   -0.645697
C      -0.444531   -3.216586    0.017634
C      -1.943270   -3.257068    0.031464
H       1.020194    1.769495   -0.163149
H      -0.610563    1.825337   -0.910232
H      -0.476423    1.621914    0.820229
H      -3.157596   -0.793387    0.041130
H       0.116649   -3.877384   -0.635653
H       0.058416   -2.950621    0.942390
H      -2.445286   -3.008003    0.964875
H      -2.478630   -3.952255   -0.608491
