19

C       0.019623    1.479563   -0.015108
C      -0.035154   -0.020478    0.008887
C      -1.403165   -0.758151    0.130685
C      -1.383547   -2.235917   -0.150492
C      -0.791763   -1.725816    1.133095
C       0.574743   -1.008213    0.988960
C       1.145177   -0.880604   -0.419364
C       1.269630   -1.854427   -1.471189
C       1.483320   -2.616743   -2.378449
H       1.038148    1.844332    0.151979
H      -0.323574    1.873816   -0.979580
H      -0.622409    1.907382    0.764074
H      -2.326549   -0.199284    0.217422
H      -2.353712   -2.708668   -0.020489
H      -0.782463   -2.671597   -0.935046
H      -1.176750   -2.013713    2.102563
H       1.211686   -0.802573    1.841430
H       2.049056   -0.271438   -0.367635
H       1.637214   -3.305996   -3.171133
