21

C      -0.019759    1.508476    0.047553
C      -0.052915    0.013782   -0.010931
C      -0.065497   -0.758594   -1.103304
C      -0.010390   -2.226308   -0.774882
C       1.434645   -2.797193   -0.506465
C       1.206019   -2.686583    1.025340
C       1.455610   -1.289495    1.656782
C       0.005581   -0.831740    1.242225
C      -0.283131   -2.286067    0.762590
H       0.885487    1.865533    0.556233
H      -0.044583    1.955320   -0.950189
H      -0.869915    1.901674    0.619964
H      -0.046022   -0.383373   -2.122093
H      -0.621732   -2.853661   -1.428402
H       1.530166   -3.839219   -0.826052
H       2.266938   -2.226455   -0.928716
H       1.502843   -3.548532    1.624606
H       1.574411   -1.350119    2.742508
H       2.283692   -0.700757    1.249995
H      -0.589818   -0.432709    2.068514
H      -1.151949   -2.823808    1.141566
