19

C      -0.216590    1.552284   -0.033014
C      -0.012686    0.037370   -0.031842
C      -1.317300   -0.708615   -0.288064
C       1.203565   -0.378964   -0.927093
C       2.057173   -0.467091    0.340258
O       3.228078   -0.446140    0.566151
C       0.791774   -0.459131    1.245092
C       0.783225    0.290813    2.476444
C       0.783728    0.936825    3.490890
H       0.721725    2.086162    0.149052
H      -0.610282    1.880798   -1.000797
H      -0.922416    1.854473    0.746250
H      -1.748670   -0.421709   -1.253512
H      -1.163137   -1.793087   -0.299294
H      -2.057414   -0.481609    0.486988
H       1.079877   -1.363638   -1.391536
H       1.543033    0.328336   -1.687523
H       0.531813   -1.510051    1.435358
H       0.791610    1.501210    4.390315
