13

C      -0.019375    1.504168   -0.001926
C       0.000161    0.007589   -0.054905
N      -0.024149   -0.612823   -1.207478
C      -0.001594   -1.965008   -1.099221
F      -0.026427   -2.567904   -2.266200
N       0.039330   -2.724396   -0.056918
C       0.065778   -2.104829    1.174302
O       0.104765   -2.643659    2.250510
N       0.043306   -0.675015    1.104931
H       0.876195    1.882193    0.502230
H      -0.057783    1.898537   -1.016188
H      -0.890360    1.857460    0.559878
H       0.062111   -0.197633    1.996036
