18

C       0.458386    1.576382    0.559732
O       0.851241    0.251661    0.235764
C       0.654914   -0.680761    1.270694
C      -0.787024   -0.863040    1.570470
N      -1.915156   -0.983016    1.789177
C       1.293676   -2.001253    0.839266
C       0.724037   -2.645714   -0.399590
C       2.678378   -2.237230    1.265861
O       1.580427   -2.860737    1.942288
H       1.011542    1.952665    1.432470
H       0.695744    2.192558   -0.309001
H      -0.617706    1.640246    0.766318
H       1.139889   -0.352811    2.203093
H       0.799710   -1.960862   -1.248283
H       1.266428   -3.565022   -0.630206
H      -0.331630   -2.894179   -0.252193
H       3.305504   -2.906076    0.679438
H       3.212941   -1.479773    1.837364
