22

C      -0.251727    1.635054   -0.074839
C       0.057142    0.131732    0.041257
C       0.735871   -0.434738   -1.173512
C       2.075469   -0.736105   -1.321586
C       3.229224   -0.632269   -0.378635
N       2.250117   -1.199485   -2.610165
C       1.054985   -1.205176   -3.292736
C       0.953884   -1.669996   -4.707758
C       0.102753   -0.733258   -2.421578
H       0.668869    2.213030   -0.205151
H      -0.890907    1.836396   -0.940327
H      -0.764722    2.005585    0.819359
H       0.674770   -0.038922    0.930904
H      -0.880961   -0.409247    0.220889
H       3.768857   -1.583313   -0.281478
H       3.960569    0.124443   -0.692551
H       2.881880   -0.352322    0.618326
H       3.128752   -1.506671   -2.990954
H       1.263626   -2.716531   -4.826428
H      -0.080702   -1.593266   -5.050151
H       1.571826   -1.070048   -5.388455
H      -0.947776   -0.618269   -2.648206
