14

N       0.115152    1.411417    0.164426
C       0.005914    0.034992    0.040490
C      -1.098695   -0.769133    0.013166
N      -0.613187   -2.100118   -0.017918
C       0.761986   -2.139100   -0.011572
O       1.509500   -3.093905   -0.012513
N       1.119770   -0.778663   -0.002097
C      -2.450502   -0.410464    0.006034
C      -3.617584   -0.098946   -0.002832
H       0.713425    1.836912   -0.535590
H      -0.795911    1.853949    0.153299
H      -1.179380   -2.929068    0.003510
H       2.070442   -0.484819    0.142603
H      -4.643266    0.174259   -0.003783
