18

C       0.063261    1.292466    0.573337
C      -0.080377   -0.115246    0.031291
C      -1.412406   -0.661504   -0.317986
N      -0.440594   -0.336801   -1.380967
C       1.396698    1.914412    0.258865
C       2.116962    2.809559    1.026225
N       3.241565    3.103244    0.328951
N       3.318866    2.456502   -0.847795
C       2.201734    1.736023   -0.894122
H      -0.754987    1.904612    0.164649
H      -0.087378    1.280136    1.660283
H       0.679042   -0.810431    0.384362
H      -1.620778   -1.720513   -0.195942
H      -2.277026   -0.014551   -0.189358
H      -0.696319    0.551448   -1.807668
H       1.916412    3.246648    1.992202
H       3.991809    3.716251    0.598476
H       2.008851    1.098169   -1.744367
