18

C      -0.068836    1.552047    0.010757
C      -0.127405    0.028122   -0.100292
C       0.819620   -0.513646   -1.188664
O       2.164930   -0.142420   -0.943822
C       0.685700   -2.005057   -1.319774
N       1.660020   -2.819967   -0.946348
N       1.125972   -4.041708   -1.187977
C      -0.117657   -3.910126   -1.688354
N      -0.434165   -2.634475   -1.784586
H       0.954808    1.880789    0.207458
H      -0.402487    2.028461   -0.918116
H      -0.710458    1.913028    0.820146
H       0.152879   -0.433130    0.855544
H      -1.145012   -0.307285   -0.330914
H       0.531946   -0.061886   -2.148177
H       2.597301   -0.893499   -0.519872
H       1.663257   -4.873172   -1.005406
H      -0.736941   -4.750894   -1.963385
