17

O      -0.125032    1.330815   -0.712514
C       0.024570    0.118174    0.011197
C      -1.336683   -0.521561    0.107168
C      -1.870316   -1.375978   -1.015706
C      -1.546631   -2.004515    0.315224
C      -0.389126   -2.984510    0.459763
C      -0.793819   -4.357599    0.149939
N      -1.125283   -5.438023   -0.090590
H       0.719556    1.791261   -0.704124
H       0.734797   -0.554821   -0.495069
H       0.420504    0.308252    1.022188
H      -2.059940    0.117330    0.606178
H      -2.909131   -1.276303   -1.307435
H      -1.195434   -1.581198   -1.841248
H      -2.395847   -2.266610    0.938851
H       0.438949   -2.718219   -0.204462
H       0.009485   -2.968793    1.481579
