20

C      -0.059516    1.485745   -0.018853
C       0.008593   -0.026025    0.009670
C      -0.851174   -0.766143    1.004600
O      -1.613066   -1.885664    0.651076
C       0.649689   -0.808515    1.159179
C       1.435213   -1.960476    0.524882
N       1.453407   -1.780822   -0.948438
C       0.194090   -2.086783   -1.644954
C       0.515723   -0.685525   -1.262189
H       0.897258    1.916763   -0.334727
H      -0.829836    1.834351   -0.716381
H      -0.298195    1.892535    0.968293
H      -1.365486   -0.110422    1.710080
H      -1.636238   -2.475184    1.413038
H       1.090442   -0.303915    2.014396
H       2.468881   -1.931959    0.883059
H       1.029949   -2.947126    0.781721
H       0.327864   -2.396672   -2.679013
H      -0.594912   -2.592218   -1.105696
H       0.838160    0.015493   -2.029341
