19

C       0.330700    1.470570    0.115800
O       0.367667    0.069076   -0.030410
C       0.543093   -0.639116    1.193583
C      -0.767289   -0.743749    1.991247
C       1.076082   -1.964198    0.874597
C       1.504798   -3.063647    0.644323
C       2.028129   -4.397422    0.342885
C       3.272557   -4.713323    1.047222
C       4.291619   -4.985254    1.620501
H       1.235211    1.851258    0.616028
H       0.282659    1.892377   -0.890980
H      -0.547043    1.818751    0.679856
H       1.289531   -0.107911    1.809279
H      -1.524932   -1.256787    1.393772
H      -0.604207   -1.308243    2.913321
H      -1.139669    0.248845    2.259179
H       1.271588   -5.155831    0.587452
H       2.192900   -4.484104   -0.740064
H       5.193794   -5.220472    2.128525
