14

O       0.170497   -0.061060    0.144138
C       0.105483    1.135756    0.041124
C       1.301564    2.053819    0.038140
C       1.244102    3.054199   -1.136525
C       0.530496    4.062433   -0.341279
C       1.066579    3.316338    0.940273
C       2.333660    4.112617    0.640645
O       3.226370    4.585613    1.262281
N       1.970115    4.320508   -0.764041
H      -0.873693    1.658364   -0.059837
H       2.216785    1.478735    0.199661
H       1.204019    2.834620   -2.194934
H      -0.250341    4.784791   -0.522077
H       0.632496    3.244705    1.933441
