13

O       0.172236    1.285445    0.424290
C      -0.029062   -0.044447    0.032410
C      -1.498461   -0.406323   -0.179540
C      -1.445949   -1.375144   -1.337520
N      -2.318089   -2.208383   -1.676531
O      -0.237499   -1.195025   -2.025369
C       0.578083   -0.331630   -1.340247
O       1.592579    0.111173   -1.786215
H       1.048817    1.541688    0.108073
H       0.437743   -0.751112    0.740311
H      -2.000991   -0.844506    0.681335
H      -2.043775    0.495268   -0.479758
H      -2.034496   -2.731127   -2.506717
