21

C       0.772989   -0.329674   -1.298122
C       0.037818   -0.084065    0.022630
C      -1.466904   -0.405074   -0.049422
C      -1.770340   -1.926414   -0.058143
N      -2.027537   -2.190572    1.350638
C      -2.488793   -1.035292    1.980174
O      -3.026042   -0.970906    3.066490
N      -2.201857    0.017071    1.135226
C      -2.396559    1.388490    1.532047
H       1.834007   -0.080214   -1.206915
H       0.709827   -1.376173   -1.614913
H       0.355415    0.285020   -2.103595
H       0.484559   -0.678439    0.828693
H       0.157979    0.967500    0.307030
H      -1.887564    0.075180   -0.943002
H      -2.642246   -2.146362   -0.690421
H      -0.923036   -2.509130   -0.430165
H      -2.483866   -3.045162    1.628720
H      -2.981338    1.377314    2.453813
H      -1.451042    1.912352    1.725442
H      -2.946127    1.944793    0.762717
