18

O      -0.039965    1.363248    0.078442
C      -0.022101   -0.032497    0.030672
C       1.121226   -0.620105    0.798468
C       2.428589    0.077809    0.843057
N       1.567998    0.025700    2.041648
C      -1.322128   -0.834951    0.044760
C      -2.364473   -0.071794   -0.757507
O      -1.438899    0.096045   -1.878536
C      -0.469920   -0.729168   -1.215014
H      -0.373225    1.657064   -0.780947
H       1.105829   -1.707266    0.847405
H       3.347224   -0.497867    0.911467
H       2.505554    1.020842    0.311662
H       1.086274    0.918743    2.127394
H      -1.504810   -1.665419    0.713616
H      -3.220222   -0.678015   -1.069723
H      -2.705728    0.888152   -0.355794
H       0.089601   -1.438182   -1.815719
