19

C       0.265138    1.529282    0.084446
N       1.269788    0.493648   -0.176646
C      -0.139465    0.091673    0.055919
C      -0.432623   -0.688001    1.273496
C      -1.366545   -1.637316    1.386616
C      -1.444876   -2.208538    2.781311
C      -0.138392   -1.690779    3.436346
C       0.285594   -0.464917    2.589712
H       0.376711    2.040706    1.036061
H      -0.070676    2.163456   -0.732246
H       1.477874    0.448552   -1.170454
H      -0.711319   -0.213564   -0.818539
H      -2.029739   -1.948184    0.585418
H      -2.339170   -1.838461    3.304515
H      -1.516305   -3.302252    2.794583
H      -0.257844   -1.453903    4.496671
H       0.632841   -2.464173    3.362529
H       1.368739   -0.383841    2.460214
H      -0.045917    0.477190    3.050231
