19

C      -0.555906    1.292668    0.046390
C       0.100999   -0.074406   -0.063783
C       1.473951   -0.182998   -0.794477
C       1.976092   -1.143871    0.321532
C       0.778513   -0.701693    1.172556
C       0.871817   -0.081109    2.537930
C       0.152711   -1.398096    2.340710
H       0.137623    2.031677    0.462160
H      -0.877239    1.651808   -0.937703
H      -1.442423    1.265086    0.690863
H      -0.609683   -0.789839   -0.496690
H       1.465820   -0.564677   -1.818085
H       2.009123    0.771344   -0.782492
H       1.915810   -2.196519    0.025586
H       2.973441   -0.954952    0.728521
H       1.835062   -0.093225    3.038935
H       0.271992    0.797720    2.752450
H      -0.930814   -1.400852    2.417094
H       0.624924   -2.302475    2.712478
