25

C       0.647928   -0.156703    1.315537
C       0.012644   -0.207238   -0.080619
C      -1.412177   -0.749080   -0.110651
C      -1.866738   -1.423294   -1.382721
C      -1.563135   -2.250784   -0.154770
C      -2.448429    0.057235    0.675451
C      -2.577020    1.500247    0.172648
O      -3.699034   -0.618855    0.576621
C      -4.601905   -0.351109    1.621473
H       1.696545    0.150867    1.253828
H       0.138909    0.554551    1.974135
H       0.612894   -1.139038    1.798201
H       0.047582    0.790194   -0.536364
H       0.626844   -0.847277   -0.725103
H      -2.909066   -1.323950   -1.660405
H      -1.172945   -1.457183   -2.216560
H      -0.656564   -2.847654   -0.146993
H      -2.406766   -2.691270    0.360939
H      -2.147530    0.073929    1.736213
H      -3.368652    2.032182    0.708109
H      -1.649154    2.058568    0.325263
H      -2.816576    1.508413   -0.894796
H      -5.482880   -0.976067    1.453115
H      -4.172850   -0.601682    2.604413
H      -4.924281    0.700340    1.646752
