18

C      -0.040834    1.544398   -0.024684
C       0.047359    0.019130   -0.003696
C       0.691450   -0.566536   -1.265215
N       0.930685   -2.004087   -1.182248
C       0.966811   -2.534799   -0.038158
O       0.843683   -1.961834    1.191277
C       0.820531   -0.518589    1.217287
C       2.186474   -0.001895    1.314795
C       3.305769    0.428231    1.392585
H       0.954258    1.995046   -0.084579
H      -0.619653    1.880323   -0.890706
H      -0.532552    1.930231    0.874749
H      -0.963911   -0.397963    0.085498
H       0.051344   -0.379123   -2.134601
H       1.646035   -0.063152   -1.470162
H       1.103883   -3.608137    0.079321
H       0.280384   -0.270399    2.137101
H       4.297449    0.801677    1.468723
