14

C      -0.258121    1.601244    0.085451
N       0.042555    0.187586    0.138631
C      -0.893660   -0.612595   -0.127791
N      -0.781733   -2.003834   -0.124806
C       0.329925   -2.789555    0.157863
O       1.424574   -2.381359    0.457909
C       0.018541   -4.212224    0.048347
C      -0.202821   -5.391451   -0.032528
H       0.406521    2.087126   -0.637744
H      -1.301884    1.828818   -0.189987
H      -0.049102    2.054104    1.061226
H      -1.914889   -0.300774   -0.395601
H      -1.620588   -2.512109   -0.358133
H      -0.381245   -6.437271   -0.099354
