21

C       0.285912    1.082377    0.389579
C      -0.210438   -0.174228   -0.330175
C       0.835938   -0.747064   -1.273526
O       0.278166   -1.895960   -1.919216
C       1.151349   -2.551450   -2.778807
C       2.261013   -3.420888   -2.191615
O       2.426736   -3.472797   -0.812300
C       0.998285   -4.053979   -2.741338
O       0.137183   -4.559952   -1.759360
H       1.181854    0.873714    0.984196
H       0.537598    1.876794   -0.321612
H      -0.478434    1.473819    1.066765
H      -0.481732   -0.945326    0.400649
H      -1.117898    0.048816   -0.903287
H       1.115665   -0.002739   -2.035512
H       1.742124   -1.040098   -0.730920
H       1.326962   -2.057752   -3.735331
H       3.190975   -3.505690   -2.747565
H       1.729102   -4.066685   -0.493332
H       1.007107   -4.637808   -3.656535
H      -0.414684   -3.813640   -1.481429
