20

C      -0.107154    1.544904   -0.030327
C       0.050315    0.035081    0.024322
O       0.840485   -0.437173   -1.104427
C       1.881813   -1.260654   -0.543505
C       1.166157   -1.932458    0.634251
C       0.810092   -0.556874    1.238886
N       2.073675    0.227563    1.312686
C       3.312234   -0.535783    1.521566
C       2.838143   -0.282351    0.136649
H       0.852244    2.044420    0.110883
H      -0.525250    1.836895   -0.997912
H      -0.793643    1.882115    0.753972
H      -0.941099   -0.436635   -0.037440
H       2.294685   -1.888767   -1.332442
H       0.287612   -2.488186    0.302828
H       1.780166   -2.581140    1.256838
H       0.257984   -0.535355    2.178964
H       4.123348    0.078735    1.901206
H       3.286389   -1.534587    1.943483
H       3.320802    0.459323   -0.492695
