21

C      -0.055075    1.534165    0.003672
C       0.040119    0.019103   -0.003029
C       1.108301   -0.689854   -0.894371
C       1.105081   -1.787044    0.189699
O       2.301485   -2.503617    0.357204
C       0.694348   -0.700302    1.214304
C      -0.101098   -2.709467   -0.060668
O      -1.186384   -2.014063   -0.654237
C      -1.319731   -0.652268   -0.267469
H       0.913936    1.983589    0.242887
H      -0.373017    1.917938   -0.972466
H      -0.777732    1.884761    0.750374
H       0.834105   -0.972556   -1.913134
H       2.055762   -0.145129   -0.889364
H       2.199168   -3.095017    1.111523
H       1.568525   -0.156590    1.584024
H       0.050214   -0.990623    2.051694
H       0.184696   -3.498360   -0.764550
H      -0.407444   -3.187016    0.887838
H      -1.956259   -0.558230    0.628829
H      -1.839904   -0.161814   -1.098448
