23

C       0.043692    1.430437   -0.070775
C       0.054384   -0.074883    0.222905
C       0.416520   -0.351145    1.688584
C      -1.296078   -0.706694   -0.150293
C      -1.295013   -2.222306   -0.194499
O      -0.274649   -2.875609   -0.285960
C      -2.636247   -2.961667   -0.127538
C      -3.604987   -2.520366   -1.233920
O      -2.420129   -4.344913   -0.195546
H       1.011929    1.881353    0.169042
H      -0.168351    1.634067   -1.125980
H      -0.717362    1.946260    0.527394
H       0.815020   -0.549522   -0.407492
H      -0.324833    0.090720    2.365918
H       0.469334   -1.424160    1.890332
H       1.389917    0.083605    1.936675
H      -2.092632   -0.366026    0.524760
H      -1.603425   -0.371201   -1.151875
H      -3.082129   -2.696084    0.848792
H      -3.160200   -2.684968   -2.220108
H      -4.514255   -3.122576   -1.167271
H      -3.881247   -1.466344   -1.137374
H      -1.455279   -4.447748   -0.241518
