21

C      -0.018254    1.619936    0.112392
C       0.024179    0.088596    0.013002
C       0.813014   -0.525981    1.177882
C      -1.388274   -0.492437   -0.053685
C      -2.268217   -0.158152   -1.265023
O      -1.660812   -0.768494   -2.419750
C      -2.503416   -1.575830   -1.577566
C      -1.591566   -2.030978   -0.429423
O      -0.475081   -2.790947   -0.804056
H       0.993908    2.036787    0.136572
H      -0.541734    2.067629   -0.738779
H      -0.529866    1.941081    1.027880
H       0.535194   -0.172434   -0.922287
H       0.335111   -0.296157    2.138298
H       0.874409   -1.612074    1.075587
H       1.831792   -0.125858    1.212846
H      -1.928497   -0.278250    0.877012
H      -2.903107    0.700655   -1.448306
H      -3.339805   -2.075690   -2.052326
H      -2.108933   -2.582172    0.358767
H      -0.139395   -2.389019   -1.615727
