16

O      -0.075687    1.432849   -0.149465
C       0.038622    0.019434   -0.118935
C      -1.359407   -0.544403    0.151572
C      -1.390777   -2.031287    0.198273
C      -1.632922   -2.937048    1.185122
C      -1.502263   -4.237024    0.593767
C      -1.188435   -4.023878   -0.708779
O      -1.115594   -2.689939   -0.968387
H       0.790821    1.800730   -0.344892
H       0.413284   -0.378074   -1.073721
H       0.727228   -0.315033    0.672709
H      -1.721056   -0.153495    1.107104
H      -2.034573   -0.168626   -0.626827
H      -1.878531   -2.706665    2.210189
H      -1.628724   -5.193458    1.076227
H      -0.995194   -4.674047   -1.545924
