21

C       0.393260    1.560291    0.084501
C      -0.008753    0.106582   -0.052198
C       0.500511   -0.695182   -1.268541
C       1.089113   -1.662656   -0.223498
C       0.458242   -3.049727   -0.046649
C       1.521850   -3.757347    0.792167
O       2.759799   -3.318604    0.239203
C       2.595846   -1.980658   -0.220917
O       0.719505   -0.757307    0.855360
H       1.465901    1.684545   -0.094470
H      -0.156333    2.179368   -0.633259
H       0.169716    1.925507    1.091837
H      -1.091267   -0.002453    0.106147
H      -0.253530   -1.110470   -1.939771
H       1.254568   -0.165570   -1.856961
H      -0.523735   -2.992362    0.427428
H       0.359988   -3.542037   -1.020951
H       1.436833   -3.463775    1.850233
H       1.493959   -4.848347    0.729184
H       3.030697   -1.904918   -1.225142
H       3.107806   -1.268819    0.440154
