17

C      -0.107299    1.644825   -0.032976
C       0.019320    0.123136   -0.129464
O       1.045138   -0.374855    0.715420
C      -1.304481   -0.574774    0.162846
C      -1.296779   -2.107104    0.340057
C      -1.708471   -1.793556    1.760848
N      -2.001592   -2.468930    2.773741
O      -1.670289   -0.418529    1.583006
H       0.865414    2.111044   -0.206760
H      -0.817314    2.031957   -0.771191
H      -0.462027    1.936023    0.961596
H       0.320808   -0.157168   -1.147014
H       0.785404   -0.168217    1.621480
H      -2.108104   -0.184782   -0.469186
H      -2.027178   -2.670820   -0.241087
H      -0.309515   -2.563062    0.258980
H      -2.242511   -1.869301    3.564774
