18

C      -0.239536    1.554786    0.039881
C       0.118989    0.072020   -0.036070
C       1.007340   -0.351077   -1.224799
N       1.935978   -1.330787   -0.676220
C       2.853880   -2.062932   -1.517063
C       1.965536   -1.412756    0.687666
O       2.692655   -2.104819    1.365583
C       0.886482   -0.430921    1.182817
O       0.707736   -0.123996    2.329316
H       0.661669    2.176329    0.034665
H      -0.866420    1.855882   -0.804500
H      -0.780610    1.757050    0.967349
H      -0.804908   -0.522403   -0.063020
H       0.431291   -0.792324   -2.046646
H       1.553689    0.510051   -1.636467
H       3.521271   -1.382293   -2.060635
H       3.448484   -2.712282   -0.872325
H       2.310546   -2.671063   -2.250053
