16

C      -0.045413    1.487410   -0.003153
C       0.056501   -0.024015   -0.124859
O       1.107287   -0.598547   -0.349507
N      -1.114370   -0.703879    0.035169
C      -1.166058   -2.136420   -0.054043
C      -2.589648   -2.614755    0.162308
O      -3.506975   -1.848994    0.375566
C      -2.776284   -4.048609    0.096482
C      -2.910326   -5.242964    0.037881
H       0.615895    1.820401    0.801125
H       0.316181    1.939561   -0.930413
H      -1.058809    1.843835    0.196902
H      -1.991032   -0.240701    0.220947
H      -0.812829   -2.500749   -1.029323
H      -0.512551   -2.618619    0.686986
H      -3.043235   -6.296909   -0.011271
