23

C       2.770398    0.610829    0.862269
C       1.602121   -0.318585    0.514086
C       1.568877   -0.724514   -0.959505
C       1.418299    0.386763   -1.864608
C       1.285469    1.319376   -2.614748
C       2.402485   -1.906190   -1.478361
C       3.354790   -2.687819   -0.598224
C       0.901931   -2.034868   -1.401380
C       0.185036   -2.957820   -0.438741
H       3.733458    0.118832    0.692164
H       2.744726    1.515038    0.247632
H       2.727061    0.911690    1.913617
H       1.645483   -1.210259    1.144156
H       0.654886    0.179397    0.754383
H       1.170697    2.139188   -3.279270
H       2.787310   -1.751789   -2.482556
H       2.994309   -2.807702    0.425711
H       3.513832   -3.691890   -1.007813
H       4.331313   -2.194815   -0.547960
H       0.395892   -1.951999   -2.359260
H       0.711513   -3.086144    0.509162
H      -0.818964   -2.583216   -0.211770
H       0.071971   -3.952472   -0.884430
