21

C      -0.216391    1.579237    0.811575
O      -0.189650    0.193057    1.053547
C       0.615002   -0.509246    0.133842
C       0.555678   -1.996199    0.479438
C      -0.860033   -2.559138    0.359748
O       1.474616   -2.613743   -0.415235
C       1.869253   -3.917831   -0.036507
C       2.923268   -4.390419   -0.925683
C       3.790373   -4.806799   -1.644424
H      -0.623547    1.811911   -0.185080
H      -0.858788    2.032081    1.570693
H       0.788084    2.025308    0.882952
H       0.261539   -0.356617   -0.899870
H       1.661349   -0.169617    0.179749
H       0.911949   -2.116887    1.515952
H      -1.193565   -2.514856   -0.682263
H      -0.918767   -3.597544    0.698176
H      -1.540314   -1.962061    0.971728
H       2.235459   -3.920455    1.004628
H       1.022361   -4.620926   -0.074847
H       4.557817   -5.168922   -2.282777
