19

C       0.517758   -0.146156   -0.666915
C       0.745791    1.133113    0.095004
C       0.700102   -0.181760    0.831948
N      -0.414626   -0.473795    1.700979
C      -1.355339   -1.444385    1.347846
C      -2.733757   -1.407924    1.306675
C      -3.181591   -2.719208    0.962285
C      -2.073433   -3.506873    0.788147
N      -0.963448   -2.721434    1.032734
H      -0.481832   -0.339593   -1.039137
H       1.317406   -0.529034   -1.291224
H       1.701709    1.636994    0.003081
H      -0.102267    1.799130    0.217512
H       1.658399   -0.552695    1.191727
H      -0.848799    0.347690    2.092909
H      -3.345331   -0.539033    1.496771
H      -4.206346   -3.035353    0.840677
H      -1.967071   -4.540135    0.501760
H      -0.009256   -3.034889    1.026301
