15

O       0.459558    0.192404   -0.147661
C       1.065154    1.216312   -0.209550
O       0.468317    2.389806   -0.528652
C       1.275907    3.549729   -0.504852
C       1.655274    3.950933    0.923262
O       1.448540    3.230053    1.868258
C       2.301113    5.295356    1.099538
C       3.538538    5.648948    0.370446
O       2.282277    6.183376   -0.020029
H       2.155289    1.314830   -0.051707
H       2.187238    3.423367   -1.107484
H       0.698829    4.350944   -0.970461
H       2.128527    5.745865    2.075235
H       4.228837    6.350160    0.835202
H       3.987618    4.937377   -0.320022
