19

C       0.132377    1.273517   -0.377646
C       0.083701   -0.123282    0.242181
O       0.563576   -0.123117    1.584788
C      -1.307854   -0.725702    0.171128
C      -1.922417   -1.232030   -1.118946
O      -1.026061   -1.458223   -2.188361
C      -0.506457   -2.758660   -1.963738
O      -0.454980   -2.943741   -0.560501
C      -1.544870   -2.208095   -0.047314
H       1.134720    1.697481   -0.270395
H      -0.122631    1.229915   -1.440334
H      -0.580203    1.948072    0.114602
H       0.773892   -0.779595   -0.292201
H       0.042885    0.517628    2.081569
H      -2.028375   -0.255486    0.840731
H      -2.937458   -0.989515   -1.415093
H      -1.160247   -3.516668   -2.427990
H       0.505900   -2.817377   -2.372024
H      -2.244483   -2.780303    0.551947
