18

C      -0.109693    1.457032    0.043662
C       0.036927   -0.053580    0.019960
C      -1.147527   -0.780144   -0.587454
C       1.412668   -0.625096   -0.167748
C       0.786860   -0.676884    1.216966
O       1.218845    0.216519    2.206135
C       0.361755   -1.994100    1.765737
O       0.147330   -2.995107    1.122682
H       0.734468    1.941224    0.535113
H      -0.185205    1.835979   -0.981783
H      -1.021489    1.750583    0.574886
H      -1.271787   -0.467066   -1.630346
H      -1.019747   -1.862793   -0.567411
H      -2.072961   -0.531959   -0.055741
H       1.511993   -1.579805   -0.674377
H       2.243445    0.062930   -0.288563
H       2.134974    0.010446    2.419990
H       0.263445   -1.977737    2.874345
