23

C      -0.146248    1.546857   -0.016761
C      -0.129257    0.022409   -0.154321
C       0.921185   -0.476777   -1.156652
C       0.933159   -1.985830   -1.281072
C       0.076661   -2.746901   -2.253227
O      -0.096072   -2.014391   -3.471971
C       1.329483   -2.099820   -3.733057
C       1.586443   -2.794784   -2.395063
C       2.596395   -3.882052   -2.172230
H       0.824647    1.924786    0.323224
H      -0.369283    2.027483   -0.975794
H      -0.901810    1.875542    0.703777
H       0.058925   -0.432406    0.827555
H      -1.118295   -0.332157   -0.469985
H       0.713726   -0.033922   -2.136388
H       1.914931   -0.121626   -0.851341
H       1.023177   -2.511483   -0.329649
H      -0.670157   -3.494792   -2.007757
H       1.519627   -2.753375   -4.593432
H       1.786154   -1.118593   -3.909290
H       3.613279   -3.476350   -2.102971
H       2.397157   -4.420755   -1.240263
H       2.585043   -4.612750   -2.989306
