18

O      -0.050635    1.440920   -0.096147
C       0.006449    0.036387    0.000691
C       0.012234   -0.626816    1.397502
C      -1.491616   -0.182080    1.585389
C      -2.199202   -1.282426    2.363860
N      -3.032230   -2.165777    1.501491
C      -1.605657   -2.494073    1.767084
C      -0.653720   -1.894474    0.741319
C      -1.361069   -0.656777    0.096899
H       0.841079    1.785452    0.011519
H       0.706217   -0.386672   -0.733553
H       0.804713   -0.616774    2.149976
H      -1.717330    0.861700    1.787962
H      -2.432758   -1.181678    3.417568
H      -3.611276   -2.747286    2.106435
H      -1.349539   -3.383379    2.331296
H      -0.055048   -2.555836    0.113196
H      -2.152423   -0.678897   -0.648843
