23

C      -0.030080    1.584427   -0.081734
C       0.028974    0.060630    0.073071
C      -1.346652   -0.590805    0.018135
C      -2.136259   -0.631399   -1.322765
C      -2.677875   -2.020840   -0.896229
O      -2.758982   -3.064867   -1.840356
C      -1.502584   -2.137863    0.115632
C      -0.329046   -2.953992   -0.416774
O      -1.843638   -2.539020    1.431029
H       0.969449    2.027948   -0.035806
H      -0.476710    1.869123   -1.040595
H      -0.633790    2.038832    0.711733
H       0.670449   -0.359181   -0.711595
H       0.505722   -0.190908    1.029347
H      -1.983128   -0.162570    0.801016
H      -2.860971    0.161726   -1.518753
H      -1.467624   -0.727021   -2.184450
H      -3.612993   -1.915782   -0.328754
H      -3.499205   -2.886082   -2.428474
H      -0.027490   -2.639315   -1.418761
H       0.528224   -2.862317    0.255925
H      -0.610429   -4.010277   -0.488862
H      -1.877926   -3.501759    1.451075
