16

O      -0.058134   -0.012353    0.140365
C       0.077278    1.152924   -0.145660
C       1.365945    1.886848   -0.079096
C       2.702220    1.259356    0.377924
C       3.101046    2.712888    0.736737
C       2.951573    3.549766   -0.552656
C       1.703821    2.976969   -1.126583
N       1.622355    4.152693   -0.194300
C       1.599879    3.102788    0.914213
H      -0.792912    1.771603   -0.463878
H       2.559544    0.636627    1.264937
H       3.298765    0.724251   -0.365037
H       3.885507    2.962818    1.447090
H       3.694971    4.097175   -1.118215
H       1.399072    3.041305   -2.163829
H       1.061219    3.272144    1.843585
