22

C      -0.420408    1.962673   -0.208725
C      -0.019218    0.517265    0.097035
C      -1.181106   -0.486489    0.148594
C      -0.632968   -1.889715    0.332229
C      -1.154911   -3.050490   -0.398704
O       0.078594   -2.436148   -0.778537
N      -2.074174   -0.202211    1.272901
C      -3.211376    0.678720    1.027757
C      -3.413677   -0.782406    1.212477
H       0.467954    2.595387   -0.300064
H      -0.972687    2.033579   -1.152889
H      -1.046602    2.385758    0.581324
H       0.679189    0.159490   -0.667751
H       0.509981    0.476363    1.056944
H      -1.720883   -0.456925   -0.817533
H      -0.161343   -2.062887    1.300942
H      -1.068307   -4.047767    0.030406
H      -1.974477   -2.919188   -1.104469
H      -3.449029    1.377692    1.824751
H      -3.347116    1.071707    0.021924
H      -3.684183   -1.358007    0.328899
H      -3.801027   -1.176450    2.147504
