23

C      -0.025393    1.594758   -0.126726
C      -0.022563    0.081009    0.101464
O       0.546581   -0.226793    1.367647
C      -1.422302   -0.576261    0.000425
C      -2.185011   -0.155380   -1.258542
C      -1.344545   -2.111842    0.141860
C      -2.591242   -2.450571    0.970423
C      -2.674884   -1.241227    1.903911
O      -2.165912   -0.129657    1.162951
H       0.970808    1.990426    0.086931
H      -0.284967    1.855831   -1.156554
H      -0.743046    2.081409    0.542059
H       0.631491   -0.397751   -0.638101
H      -0.106871    0.076805    2.011513
H      -1.577867   -0.316484   -2.156335
H      -3.105155   -0.738254   -1.363385
H      -2.461125    0.900093   -1.210380
H      -1.322064   -2.612576   -0.829154
H      -0.439232   -2.377614    0.693865
H      -3.481737   -2.507821    0.335810
H      -2.506430   -3.395132    1.513316
H      -3.694510   -1.005268    2.226105
H      -2.062689   -1.401446    2.804136
