19

C      -0.079361    1.649847    0.039683
C      -0.030041    0.114076    0.022897
C       0.920521   -0.432662    1.099504
O      -1.330634   -0.474267    0.094207
C      -2.095084   -0.251098    1.252840
C      -3.419470   -0.977672    1.074321
O      -4.292315   -0.976534    1.899771
C       0.479621   -0.341182   -1.351480
O       1.557595   -0.044645   -1.792577
H       0.900398    2.041478   -0.243842
H      -0.821717    2.019805   -0.673640
H      -0.327391    2.031368    1.034194
H       0.667981   -0.044792    2.090422
H       0.881475   -1.525530    1.129743
H       1.942383   -0.127801    0.861680
H      -1.612204   -0.637106    2.163152
H      -2.309159    0.814672    1.423594
H      -3.507254   -1.513660    0.103791
H      -0.243600   -0.975619   -1.907486
