16

C      -0.108942    1.509369    0.027393
C       0.085374    0.007619    0.083673
O       1.181930   -0.501360    0.269172
N      -1.050224   -0.737604   -0.087298
C      -1.114216   -2.128191   -0.074511
N      -2.225153   -2.806496   -0.242600
C      -1.832495   -4.127208   -0.157247
C      -0.485399   -4.222611    0.061833
N      -0.029476   -2.918757    0.113768
H       0.519789    1.914779   -0.769847
H      -1.144223    1.812105   -0.145146
H       0.238426    1.943536    0.968720
H      -1.939195   -0.287298   -0.238308
H      -2.548141   -4.928013   -0.259478
H       0.179369   -5.060743    0.183096
H       0.897758   -2.544181    0.257246
