18

C      -0.264899   -1.202206    0.036561
C      -0.153087   -0.009554    0.134939
C       0.014299    1.433875    0.239264
C       1.383785    1.903295   -0.283008
N       1.461942    3.356900   -0.177475
C       2.024374    3.903879    1.046113
C       2.793042    3.988790   -0.240176
C       3.992049    3.215943   -0.418576
C       5.000704    2.588477   -0.608566
H      -0.376651   -2.254719   -0.046154
H      -0.773337    1.950348   -0.321547
H      -0.098371    1.745536    1.285686
H       2.186612    1.389128    0.265335
H       1.486285    1.631227   -1.337993
H       1.543314    4.793560    1.443025
H       2.406566    3.208757    1.791924
H       2.787302    4.936244   -0.774369
H       5.892008    2.033000   -0.766100
