15

O      -0.010778    1.281690   -0.088133
C      -0.029095   -0.112621   -0.038193
C      -0.469878   -0.708293    1.282625
C      -1.411469   -0.662105    0.059026
C      -1.434662   -2.214153    0.017999
C      -0.500395   -2.242319    1.233421
O       0.547637   -2.893809    0.430269
C      -0.267529   -2.921885   -0.690629
O      -0.010460   -3.385864   -1.752696
H       0.816513    1.582922    0.302365
H       0.731215   -0.606784   -0.641873
H      -0.482013   -0.104186    2.180668
H      -2.271571   -0.031037   -0.118366
H      -2.410316   -2.693449   -0.007614
H      -0.698498   -2.793241    2.150281
