22

C       0.119740    1.634743    0.030270
C      -0.109496    0.119725   -0.040206
C       0.650237   -0.507867   -1.206386
C       2.185777   -0.620969   -1.048633
O       3.086295    0.137695   -0.792155
N       2.144736   -1.968370   -1.292777
C       0.674666   -2.072542   -1.420537
C       0.035381   -2.920972   -0.321720
C       0.221315   -2.526747   -2.807781
H       1.187279    1.856785    0.110207
H      -0.259348    2.132736   -0.869140
H      -0.392437    2.069075    0.894060
H       0.207755   -0.338126    0.903635
H      -1.181024   -0.094168   -0.144642
H       0.391704    0.008923   -2.137288
H       2.872805   -2.668849   -1.293868
H       0.392316   -2.631712    0.669295
H      -1.055133   -2.825480   -0.338950
H       0.275500   -3.979851   -0.470182
H       0.474935   -3.578987   -2.979603
H      -0.864415   -2.427267   -2.910858
H       0.699210   -1.929519   -3.589482
