18

C      -0.127358    1.450971    0.050150
C      -0.273949   -0.024647   -0.284129
O       0.313107   -0.562234   -1.200794
N      -1.123591   -0.724929    0.541398
C      -1.218660   -2.149875    0.465069
C      -2.469823   -2.800763    0.939060
C      -2.144911   -2.813641   -0.551601
C      -2.982195   -1.996512   -1.459882
O      -3.321705   -2.344203   -2.563255
H       0.056211    2.001051   -0.873410
H      -1.005546    1.863670    0.554509
H       0.741254    1.590189    0.702709
H      -1.477821   -0.273672    1.369704
H      -0.280196   -2.677534    0.613764
H      -2.406981   -3.738996    1.476707
H      -3.283276   -2.152583    1.251828
H      -1.796699   -3.743860   -0.984885
H      -3.300644   -1.016553   -1.039070
