17

O       0.119309    1.429198    0.175161
C       0.053030    0.017449    0.238527
C      -1.345363   -0.520803   -0.125141
C      -1.395717   -2.022093   -0.050317
N      -0.779151   -2.696919   -1.033501
C      -0.796961   -4.026090   -0.951235
N      -1.361380   -4.772310   -0.000116
C      -1.970359   -4.090048    0.973309
C      -2.015807   -2.702526    0.998174
H       0.041140    1.688129   -0.748642
H       0.800853   -0.461865   -0.408468
H       0.293572   -0.247978    1.273466
H      -2.085378   -0.071165    0.543347
H      -1.580535   -0.215146   -1.151349
H      -0.295968   -4.564622   -1.752803
H      -2.439583   -4.678613    1.758794
H      -2.517649   -2.169475    1.797696
