17

C       0.231967    1.566466    0.014270
C       0.086772    0.041795    0.021157
C       0.460876   -0.578542   -1.306837
O       1.887237   -0.382386   -1.628201
C       2.143440   -1.722783   -1.641385
O       3.178211   -2.274370   -1.814511
C       0.666575   -2.120979   -1.389065
C       0.373641   -2.952130   -0.244580
C       0.134087   -3.641766    0.709765
H       1.261331    1.856121   -0.214637
H      -0.421567    2.025556   -0.735535
H      -0.031305    1.985556    0.989213
H       0.708860   -0.400169    0.806875
H      -0.947708   -0.246503    0.244850
H      -0.140551   -0.176352   -2.127175
H       0.235991   -2.547100   -2.301129
H      -0.070760   -4.256855    1.551200
