17

O      -0.140742    1.390390   -0.298184
C       0.002343    0.026491    0.005813
C      -0.187876   -0.393341    1.453427
C      -1.278939   -0.658234    0.441614
C      -2.554199    0.115713    0.481614
C      -3.709450   -0.265163   -0.339383
O      -3.676599   -0.563548    1.058004
C       0.942385   -0.690399   -0.817023
C       1.749929   -1.265019   -1.498680
H       0.709648    1.815538   -0.139134
H       0.386519   -1.230818    1.830763
H      -0.350034    0.419106    2.154011
H      -1.393985   -1.686183    0.114089
H      -2.457595    1.158482    0.776156
H      -4.431215    0.492028   -0.642364
H      -3.635508   -1.126119   -1.002957
H       2.453382   -1.776178   -2.108227
