19

C      -0.003320    1.580387   -0.027892
C       0.033164    0.088877    0.035282
C      -0.007759   -0.980769   -1.021591
C       1.280382   -1.650346   -0.527769
C       0.966088   -0.982305    0.819449
O       1.954247   -0.731381    1.740746
C      -0.339634   -1.660561    1.310757
O      -0.712842   -1.160077    2.589487
C      -1.028799   -0.995269    0.132700
H       0.948402    1.985083   -0.390440
H      -0.791509    1.926332   -0.706060
H      -0.193760    2.027839    0.955098
H      -0.348427   -0.876193   -2.043746
H       1.359819   -2.743923   -0.538519
H       2.160557   -1.209856   -1.004194
H       1.505645   -0.685957    2.598714
H      -0.338757   -2.752509    1.401417
H      -1.060974   -0.269951    2.459672
H      -2.093204   -0.919332   -0.055944
