16

O       0.124717    1.376046   -0.169977
C       0.120411   -0.032758   -0.120110
C      -1.264651   -0.570702    0.249384
O      -2.197934   -0.095745   -0.745514
C      -2.917719   -1.183227   -1.310190
C      -2.317394   -2.423614   -0.683231
C      -1.400038   -2.064192    0.204612
C      -4.364912   -1.058061   -1.022999
N      -5.497776   -0.978492   -0.811678
H      -0.580640    1.630585   -0.776595
H       0.430341   -0.481708   -1.077378
H       0.847189   -0.328510    0.644462
H      -1.551945   -0.152554    1.225528
H      -2.802088   -1.169410   -2.403857
H      -2.643659   -3.421471   -0.941688
H      -0.808608   -2.727416    0.822544
