17

C       0.104529    1.545256   -0.466325
C       1.510658    1.942813   -0.048808
N       1.680899    1.963152    1.413680
C       2.175851    0.807025    0.643241
C       1.222584   -0.382441    0.710253
N       0.932726   -0.803981    2.090164
C      -0.242617   -0.391676    2.323317
O      -0.969002    0.202458    1.345533
C      -0.137536    0.157222    0.160500
H      -0.652691    2.259600   -0.132189
H       0.042927    1.474446   -1.557658
H       2.071325    2.644459   -0.658790
H       2.462697    2.561245    1.667213
H       3.244549    0.633649    0.577809
H       1.619864   -1.220307    0.130584
H      -0.762115   -0.477025    3.271389
H      -0.630065   -0.522834   -0.539954
