16

C       0.020250    1.517444    0.236769
C      -0.019918    0.042600   -0.033745
C      -1.161895   -0.603259   -0.315347
O      -1.186068   -1.957430   -0.565911
C      -0.035525   -2.672974   -0.530534
N       0.021709   -3.922503   -0.764396
C       1.190086   -1.901130   -0.201242
N       2.315404   -2.643745   -0.145111
N       1.197816   -0.623925    0.024293
H       0.677640    2.020265   -0.480881
H      -0.974241    1.966215    0.172146
H       0.427514    1.712561    1.234769
H      -2.148877   -0.169779   -0.379253
H      -0.900051   -4.302934   -0.978674
H       2.255756   -3.612143   -0.413036
H       3.200106   -2.185952   -0.013737
