15

C       0.091918    1.454721   -0.019400
O       0.031489    0.022896    0.008037
C       0.530054   -0.595791   -1.055354
N       1.051336   -0.014623   -2.102005
O       1.413451   -1.054308   -2.935819
N       1.104664   -2.263797   -2.384002
C       0.557216   -2.018811   -1.227227
C       0.125316   -3.095605   -0.279008
O       1.008866   -3.214541    0.825101
H       1.129866    1.792072   -0.094536
H      -0.473075    1.845897   -0.870802
H      -0.350617    1.787908    0.918779
H      -0.849408   -2.841918    0.147065
H       0.022952   -4.035753   -0.835922
H       1.866198   -3.490891    0.483418
