17

N       0.414223    0.888613   -0.511115
C      -0.074706   -0.000172    0.388571
O       0.380960   -0.135776    1.509891
C      -1.269725   -0.854258   -0.014548
C      -2.053998   -0.972255   -1.270120
C      -1.272592   -0.913319   -2.565738
O      -0.885574    0.384311   -2.996474
C      -0.262380   -1.906289   -1.930242
N      -1.185725   -2.130803   -0.755976
H       1.193660    1.453849   -0.215277
H       0.018112    1.003601   -1.435223
H      -1.880577   -1.007089    0.871819
H      -3.138061   -1.015481   -1.227962
H      -1.841151   -1.407873   -3.361315
H      -0.426982    0.306179   -3.839840
H      -0.133543   -2.835608   -2.487011
H       0.714251   -1.496814   -1.663322
