15

C      -0.317949    1.440784    0.126586
N      -0.030806    0.031429   -0.068242
C       0.712857   -0.568491    0.764410
N       1.319971   -0.021510    1.898696
N       2.114229   -0.672467    2.783666
N       2.367512   -1.890904    2.622731
C       1.826723   -2.609281    1.510883
N       2.067004   -3.842439    1.324539
N       1.022459   -1.904010    0.634941
H       0.586789    2.068485    0.102268
H      -0.968214    1.784209   -0.680846
H      -0.843583    1.642845    1.073176
H       1.184408    0.949368    2.124665
H       2.673819   -4.175012    2.072997
H       0.630404   -2.393121   -0.157074
