21

O       0.628200   -0.302480    1.381193
C       0.143915    0.011399    0.079870
C      -1.256389   -0.556192   -0.017825
C      -2.039847   -0.631225   -1.347204
C      -1.149685   -0.998806   -2.539689
C      -0.558449   -2.421203   -2.330545
C      -0.481235   -2.849958   -0.838599
C      -1.524401   -2.078291   -0.027442
O      -2.697035   -1.841675   -0.868780
H       1.522053    0.043254    1.461272
H       0.110574    1.101422   -0.082723
H       0.801352   -0.410232   -0.693593
H      -1.882778   -0.091491    0.748406
H      -2.755409    0.164778   -1.572819
H      -1.741630   -0.983105   -3.460503
H      -0.366847   -0.241080   -2.663953
H      -1.215388   -3.127658   -2.842296
H       0.420827   -2.507661   -2.810716
H      -0.668520   -3.925609   -0.760308
H       0.509253   -2.675480   -0.403550
H      -1.786584   -2.561414    0.916441
