15

C       0.014284    1.503091   -0.050024
C       0.034817   -0.005542    0.084443
O       0.078166   -0.572298    1.146213
C      -0.004202   -0.782973   -1.246490
C      -0.047812   -2.255043   -1.050861
N      -1.083160   -3.040291   -1.087132
C      -0.514260   -4.260227   -0.816436
N       0.776573   -4.246535   -0.631567
O       1.098136   -2.893293   -0.788885
H       0.851369    1.844717   -0.669018
H      -0.905443    1.825869   -0.550950
H       0.074014    1.960941    0.937528
H      -0.886344   -0.475478   -1.815655
H       0.876306   -0.502509   -1.835871
H      -1.077542   -5.180212   -0.760402
