15

O      -0.737433    0.839816    0.496116
C       0.261254    0.854552   -0.167248
C       1.389904    1.901276   -0.019392
C       1.406031    2.545499    1.390518
O       2.324747    1.730950    2.098658
C       3.298350    1.395886    1.150479
O       2.613039    1.149534   -0.070548
C       1.285642    2.857662   -1.113519
C       1.146761    3.622315   -2.030559
H       0.483023    0.097802   -0.946786
H       1.747139    3.587150    1.334211
H       0.428117    2.486055    1.868631
H       4.019298    2.219740    1.009135
H       3.812168    0.484183    1.465507
H       1.037558    4.306032   -2.836625
