19

O      -0.003981    1.348733   -0.053714
C       0.026545   -0.060086    0.021144
C       0.314824   -0.781701   -1.355068
C      -1.061372   -1.445016   -1.267392
C      -1.291184   -2.124844    0.065761
C      -0.229527   -2.804758    0.932099
C       0.734539   -1.840393    1.576928
C       0.845613   -0.576429    1.175284
C      -1.404883   -0.631445   -0.024888
H       0.902824    1.660547   -0.149248
H       0.348984   -0.031017   -2.148944
H       1.196546   -1.427905   -1.416772
H      -1.690334   -1.678388   -2.118476
H      -2.256269   -2.623965    0.096090
H      -0.730927   -3.380205    1.721440
H       0.323723   -3.551072    0.343379
H       1.335064   -2.216300    2.401104
H       1.532678    0.115862    1.656379
H      -2.286388   -0.059697    0.235499
