19

C      -0.370600    1.458493    0.069604
C      -0.036682   -0.027030   -0.009792
C       1.142877   -0.433573   -0.981957
N       1.841563   -0.953660    0.213220
C       2.840391   -1.557878    0.907822
N       2.510332   -1.611512    2.186837
C       1.259807   -1.032665    2.334664
C       0.594443   -0.936253    3.668680
C       0.846834   -0.622253    1.088916
H       0.530412    2.055399    0.242542
H      -0.843654    1.805254   -0.855448
H      -1.064229    1.653837    0.893311
H      -0.943389   -0.608521   -0.206091
H       0.910038   -1.201886   -1.723359
H       1.659325    0.403551   -1.459498
H       3.754861   -1.928480    0.472050
H       1.190327   -0.339646    4.368240
H      -0.392092   -0.472293    3.582246
H       0.467019   -1.926336    4.119659
