22

C      -0.083998    1.519028   -0.053081
C       0.038506    0.027402   -0.009235
C       0.426921   -1.002266   -1.022899
C       1.288449   -1.756715   -0.006080
C       0.655559   -0.872804    1.123150
C       1.602156   -0.259505    2.135528
C      -0.569617   -1.600070    1.694040
C      -1.439866   -1.825532    0.433543
N      -0.972600   -0.852530   -0.580738
H       0.889530    2.003579    0.078309
H      -0.498736    1.833941   -1.014587
H      -0.750124    1.888456    0.735901
H       0.620797   -0.904456   -2.086559
H       1.167142   -2.843329    0.075030
H       2.349094   -1.530717   -0.148731
H       2.418172    0.282220    1.644962
H       1.079688    0.445352    2.792926
H       2.053618   -1.030175    2.770465
H      -0.302821   -2.535078    2.198442
H      -1.087027   -0.965101    2.423679
H      -1.349122   -2.842789    0.039512
H      -2.501448   -1.644285    0.624539
