21

C       0.026781    1.534902   -0.077284
C       0.045054    0.011376    0.058883
O       0.566241   -0.479578   -1.166458
C       0.887989   -1.858687   -1.134364
C       2.034098   -2.122187   -0.159347
C       1.747268   -1.438781    1.149342
C       0.827925   -0.480557    1.263853
C       0.473906    0.146269    2.587366
O       1.052403   -0.589289    3.650395
H       1.047391    1.925411   -0.127059
H      -0.493825    1.808208   -0.998661
H      -0.491719    2.004207    0.763250
H      -1.001659   -0.336329    0.168988
H       0.005275   -2.450490   -0.839828
H       1.152538   -2.134145   -2.159367
H       2.154344   -3.202559   -0.007367
H       2.982208   -1.764158   -0.584237
H       2.288609   -1.759367    2.032861
H       0.817297    1.194152    2.604126
H      -0.626874    0.183057    2.683325
H       0.946344   -0.077293    4.456718
