21

C      -0.001469    1.666870    0.045526
C       0.041999    0.147832    0.057137
C       1.118571   -0.599984   -0.740819
O       2.352732   -0.032893   -0.188470
C       2.115435   -0.014677    1.257213
C       0.745571   -0.657803    1.235929
C      -0.171428   -1.547701    2.086949
C      -0.342706   -2.457679    0.813369
C       0.947395   -1.809124    0.196968
H       1.001625    2.098471    0.028451
H      -0.529429    2.025756   -0.844756
H      -0.534050    2.056298    0.920584
H      -0.952945   -0.258670   -0.125722
H       1.221361   -0.609454   -1.827150
H       2.874590   -0.617882    1.766524
H       2.168794    1.017087    1.621708
H       0.367747   -2.073081    2.881254
H      -1.066759   -1.087918    2.514674
H      -0.244797   -3.530075    0.991496
H      -1.271677   -2.291053    0.266270
H       1.831139   -2.444358    0.285568
