13

O      -0.111551   -0.017725    0.043175
C      -0.025378    1.187804   -0.006918
C       1.239528    1.921536    0.019373
C       1.366344    3.408904    0.339192
C       1.801963    2.946322   -0.996240
O       3.087958    2.355539   -0.978453
C       2.629957    1.306880   -0.072408
H      -0.931504    1.831240   -0.087109
H       0.418004    3.938209    0.366569
H       2.102327    3.729631    1.070775
H       1.403734    3.286534   -1.945471
H       3.226377    1.262179    0.844484
H       2.628351    0.336494   -0.575417
