19

C      -1.309230    0.608075    0.154804
C      -0.029691   -0.175903   -0.067058
O       0.310560   -0.810975    1.175023
C       1.431160   -1.559707    1.176741
N       2.150216   -1.699979    0.140204
C       1.656319   -2.155073    2.536509
C       0.686782   -1.870205    3.646945
N       2.706483   -2.882958    2.618598
O       2.907929   -3.427116    3.879339
H      -1.173200    1.369486    0.928273
H      -1.602777    1.108496   -0.772718
H      -2.125165   -0.052355    0.462387
H      -0.143842   -0.944112   -0.839068
H       0.801060    0.466966   -0.376427
H       2.941842   -2.301810    0.365217
H      -0.321880   -2.172971    3.351743
H       0.974414   -2.392596    4.557329
H       0.643371   -0.794287    3.841241
H       3.718840   -3.933269    3.758496
