13

N      -0.184885    1.294450    0.012055
C      -0.013497    0.049677    0.001721
O      -1.144292   -0.736019    0.007794
C      -1.047676   -2.080662    0.000200
N      -2.232443   -2.698031    0.004048
C      -2.154587   -4.017221   -0.003128
C      -0.916534   -4.667150   -0.013957
N       0.218416   -3.978626   -0.017201
N       0.156320   -2.652078   -0.009809
H       0.718344    1.765352    0.005631
H       0.912956   -0.521420   -0.011795
H      -3.089569   -4.572610   -0.000295
H      -0.826759   -5.747451   -0.020094
