20

C       0.557659   -1.042592   -1.753655
C       0.143360   -0.276535   -0.492676
C      -1.318941   -0.460342   -0.101433
C      -2.302433    0.203832   -1.069115
O      -2.150843    1.608212   -1.037117
C      -1.755492   -1.855202    0.409166
C      -2.116216   -1.118398    1.712480
O      -1.565734    0.124380    1.222009
H       1.630486   -0.929791   -1.934640
H       0.350230   -2.114756   -1.661762
H       0.036631   -0.676989   -2.643690
H       0.756668   -0.595692    0.357442
H       0.320084    0.795847   -0.628974
H      -2.127456   -0.119971   -2.100389
H      -3.328484   -0.094293   -0.797890
H      -2.183234    1.843079   -0.099999
H      -2.581645   -2.325440   -0.128045
H      -0.936380   -2.569944    0.506222
H      -3.190409   -1.037434    1.920032
H      -1.606355   -1.454971    2.621790
