20

C       1.337470    0.030142   -0.355894
C       0.572126   -1.097813   -0.953547
N      -0.075609   -0.158314   -0.043409
C      -0.380208   -0.652626    1.292110
C      -0.514068    0.493281    2.322548
C      -1.482734   -0.034812    3.406379
C      -2.366840   -1.007828    2.648171
O      -2.850382   -0.481515    1.405478
C      -1.721782   -1.362323    1.378245
H       2.068840   -0.220070    0.411839
H       1.579492    0.910220   -0.944482
H       0.241488   -1.058236   -1.987227
H       0.796846   -2.098095   -0.584955
H       0.386677   -1.377071    1.634339
H       0.451251    0.801751    2.730057
H      -0.954982    1.349854    1.809237
H      -0.948758   -0.579164    4.195257
H      -2.050979    0.766395    3.888965
H      -3.047757   -1.676365    3.169416
H      -1.880150   -2.310995    0.870970
