13

N      -0.014153    1.198445   -0.304252
C       0.021309   -0.008313   -0.002685
O       1.019871   -0.828829    0.458154
C       0.146862   -1.989540    0.513823
C      -1.053912   -1.126413   -0.007149
C      -2.153401   -0.935532    0.922732
C      -3.043119   -0.785048    1.713376
C      -1.515576   -1.491598   -1.346763
N      -1.856100   -1.801235   -2.405780
H       0.887114    1.661314   -0.180354
H       0.481795   -2.776516   -0.162966
H       0.026807   -2.354520    1.534070
H      -3.838405   -0.641721    2.403581
