20

C       0.429192    1.385293    0.164968
C      -0.134664   -0.041038    0.042255
C      -1.652152   -0.009077    0.046728
O      -2.354042   -0.583910    0.837239
C       0.351274   -0.692840   -1.245296
N       1.695427   -1.291407   -1.217662
C       0.519157   -2.157045   -1.454163
C       0.290672   -3.222314   -0.405400
O       1.295967   -4.219333   -0.481214
H       1.520866    1.354571    0.112778
H       0.067687    2.026871   -0.647176
H       0.140660    1.846186    1.113934
H       0.184309   -0.637893    0.899022
H      -2.097657    0.611434   -0.768704
H       0.088743   -0.125111   -2.139199
H       2.187892   -1.107748   -2.087180
H       0.376752   -2.512309   -2.473709
H       0.245468   -2.776946    0.596949
H      -0.663284   -3.728540   -0.584623
H       2.135320   -3.758654   -0.365057
