20

C      -0.980967    1.123152   -0.040287
C       0.042985    0.004572    0.066082
C       1.301093    0.062684   -0.857354
C       2.149242   -0.320750    0.359330
C       3.093539   -1.471395    0.443294
C       3.624187   -0.047801    0.593311
C       4.402999    0.537166   -0.459478
N       5.011423    1.018966   -1.318431
C       0.986650   -0.017253    1.310303
H      -0.504043    2.104004    0.067048
H      -1.489526    1.104312   -1.010441
H      -1.746360    1.036668    0.738930
H      -0.451079   -0.966409   -0.040509
H       1.326546   -0.614726   -1.714332
H       1.513410    1.077680   -1.209160
H       3.100753   -2.082178    1.340199
H       3.345896   -1.997915   -0.470838
H       3.913938    0.265098    1.591632
H       1.073777    0.970093    1.776371
H       0.775396   -0.755715    2.088481
