24

C       1.258108   -0.155136   -0.541883
C       1.202979   -1.053687    0.691195
O       1.992041   -0.532116    1.758547
C      -0.210393   -1.193593    1.265508
N      -1.081773   -1.849933    0.297340
C      -2.415784   -2.313223    0.690048
C      -2.951744   -2.162710    2.096855
C      -2.259635   -1.170510   -0.261711
C      -2.645530    0.253414    0.073932
H       2.282314   -0.083407   -0.927097
H       0.629227   -0.559980   -1.339577
H       0.916376    0.856161   -0.295262
H       1.548782   -2.061600    0.412811
H       2.881241   -0.383411    1.423220
H      -0.141307   -1.809590    2.168673
H      -0.550191   -0.197119    1.582333
H      -2.662463   -3.282092    0.252977
H      -2.742268   -1.185783    2.536699
H      -4.037206   -2.309889    2.103655
H      -2.515174   -2.921379    2.756281
H      -2.396550   -1.396280   -1.320043
H      -2.639078    0.469001    1.143814
H      -1.969653    0.965281   -0.413516
H      -3.656426    0.454372   -0.296645
