24

C      -1.154207    0.959569   -3.315916
C      -0.438677    0.916248   -1.958531
C       0.708432   -0.086911   -1.902328
C       2.046302    0.322469   -2.436877
N       1.851119    0.122301   -1.005603
C       1.934177    1.278278   -0.127976
C       0.276116   -1.529204   -2.010095
C       1.153131   -2.651173   -1.525597
C      -0.100317   -2.297423   -0.765007
H      -0.454188    1.204425   -4.121726
H      -1.623646    0.002598   -3.561557
H      -1.942039    1.719313   -3.312797
H      -0.066364    1.919365   -1.731835
H      -1.163431    0.666921   -1.172661
H       2.687053   -0.399221   -2.938097
H       2.150970    1.348563   -2.791261
H       1.660426    2.236667   -0.595394
H       1.290345    1.125659    0.744343
H       2.966121    1.368351    0.227259
H      -0.316457   -1.743321   -2.894884
H       1.167445   -3.570877   -2.100199
H       2.094810   -2.371730   -1.068781
H       0.031989   -1.791883    0.185710
H      -0.948175   -2.972435   -0.804707
