18

C      -0.067771    1.481325    0.179102
C       0.066289   -0.028197    0.117432
O       1.118117   -0.592268    0.311229
C      -1.209371   -0.800389   -0.217102
C      -1.037750   -2.293837   -0.084742
C      -1.364117   -2.996490    1.194925
C      -2.250854   -3.216161   -0.025162
C      -3.575618   -2.663161   -0.044010
N      -4.638475   -2.205129   -0.062893
H       0.915334    1.937214    0.300685
H      -0.552030    1.868364   -0.723941
H      -0.705833    1.762702    1.025116
H      -2.030533   -0.434020    0.410822
H      -1.496697   -0.530312   -1.243756
H      -0.199217   -2.694328   -0.643407
H      -0.748969   -3.830445    1.510747
H      -1.786720   -2.411530    2.004224
H      -2.165895   -4.170794   -0.532881
