20

C       0.006452    1.504826    0.079080
C      -0.034590   -0.018933   -0.031417
O       0.798600   -0.655177    0.931854
C      -1.452600   -0.534710    0.044948
C      -2.134828   -1.014579    1.294186
C      -2.013979   -1.933214    0.100984
C      -2.939438   -1.523496   -1.057594
C      -3.767514   -0.326797   -0.812001
N      -2.337597   -0.142923   -1.136135
H       1.030838    1.869197   -0.037107
H      -0.622412    1.956236   -0.693042
H      -0.373104    1.830855    1.055977
H       0.374784   -0.313551   -1.005333
H       0.670399   -0.200094    1.770962
H      -1.429651   -1.269540    2.078855
H      -3.080692   -0.638746    1.668101
H      -1.488137   -2.877390    0.143485
H      -3.041171   -2.125292   -1.955295
H      -4.403805    0.000880   -1.629753
H      -4.155906   -0.080423    0.169148
