17

C      -0.000556    1.496252    0.011886
C       0.018225   -0.012141   -0.056685
O       0.873988   -0.412646   -1.088145
C       0.927495   -1.808063   -1.225133
C       2.170726   -2.459821   -0.718361
C       0.863565   -2.588461    0.062778
C       0.707302   -1.833390    1.345407
O       0.788467   -2.331468    2.433343
O       0.481708   -0.495914    1.219898
H       1.014418    1.867220    0.172437
H      -0.386314    1.903358   -0.925451
H      -0.635611    1.823309    0.837482
H      -0.988020   -0.427888   -0.217687
H       0.429370   -2.187544   -2.113477
H       2.533763   -3.355641   -1.208027
H       2.934581   -1.801588   -0.321791
H       0.400858   -3.567287    0.077398
