19

C      -0.163351    1.512135    0.187845
C       0.128579    0.054822    0.037638
O      -0.747637   -0.885014    0.681838
C       0.660792   -0.967196    0.957683
C       1.294824   -1.765416   -0.185557
C       0.732460   -0.686333   -1.179848
C      -0.260397   -1.144497   -2.255853
C       0.349338   -2.018590   -3.250639
C       0.880680   -2.736992   -4.055089
H       0.707903    2.113944   -0.090313
H      -0.998419    1.813184   -0.455271
H      -0.434085    1.741360    1.221926
H       0.960619   -0.893519    1.997310
H       2.386395   -1.784770   -0.157995
H       0.915028   -2.782662   -0.307285
H       1.546534   -0.113540   -1.633035
H      -1.089913   -1.661915   -1.760027
H      -0.691988   -0.267062   -2.756052
H       1.334965   -3.374213   -4.772417
