21

C      -0.030497    1.509341    0.075547
C      -0.132722   -0.008421   -0.056839
N       0.598125   -0.496901   -1.211898
C       0.025216   -0.229350   -2.557664
C       0.316051   -1.671419   -2.899565
N       0.380875   -2.397072   -3.930761
O       0.040526   -1.666060   -5.085280
C       0.616021   -1.971354   -1.445635
C       1.905489   -2.689424   -1.080491
H       1.015352    1.817976    0.159725
H      -0.461679    2.011599   -0.797043
H      -0.572199    1.857409    0.960243
H       0.294678   -0.485883    0.833311
H      -1.200405   -0.307039   -0.094717
H      -1.055214   -0.007456   -2.554049
H       0.538880    0.538195   -3.145033
H       0.147826   -2.323795   -5.780672
H      -0.245644   -2.472450   -0.969173
H       2.760806   -2.202650   -1.555697
H       2.058314   -2.678348    0.003671
H       1.866065   -3.732220   -1.409914
