15

C       0.095140    1.520144    0.221120
N       1.540003    1.781688    0.088157
C       2.044990    0.717059   -0.389250
C       3.184076    0.010544    0.326272
O       2.892387    0.083996    1.734090
C       2.393794   -1.032738    1.006513
C       0.989804   -1.065559    0.363537
C      -0.017391    0.018258   -0.045964
N       1.122827   -0.303850   -0.907430
H      -0.210290    1.844249    1.220782
H      -0.516025    2.068117   -0.509334
H       4.221745   -0.053197    0.025213
H       2.797827   -1.998748    1.297000
H       0.609763   -2.080363    0.253609
H      -0.985260   -0.366561   -0.360238
