19

C      -0.128630    1.419170    0.063991
C       1.261733    0.799474   -0.049303
C       2.068834    0.525191    1.199292
O       1.248935   -0.274927    2.064630
C       0.142802   -0.820525    1.360190
C       0.271387   -2.283527    0.849825
C       0.174600   -2.153619   -0.689765
O      -0.462287   -0.892049   -0.943811
C       0.016544   -0.055165    0.052483
H      -0.428435    1.901212    0.990899
H      -0.504626    1.890043   -0.837781
H       1.776820    0.903273   -0.996644
H       2.991079   -0.013576    0.934325
H       2.354271    1.419985    1.765856
H      -0.724736   -0.716188    2.020088
H       1.215535   -2.725337    1.175216
H      -0.542196   -2.897467    1.243320
H       1.174223   -2.159118   -1.147368
H      -0.429815   -2.928908   -1.164818
