19

C       0.357067    1.599790    0.230741
C       0.018853    0.148316    0.140887
C      -1.273554   -0.509046   -0.376648
C      -0.992616   -1.724822    0.585449
C      -0.815592   -3.086293   -0.023137
C      -1.141542   -4.318578    0.706772
O      -2.013403   -3.819953   -0.307727
C       0.292274   -0.998150    1.027447
O       1.079087   -0.779070   -0.153432
H       1.289948    1.741618    0.782769
H       0.483488    2.031144   -0.768793
H      -0.440334    2.153801    0.736424
H      -2.183096    0.031093   -0.104291
H      -1.284235   -0.725208   -1.447766
H      -1.735117   -1.767047    1.387295
H      -0.062179   -3.140836   -0.808254
H      -0.621752   -5.245056    0.466052
H      -1.524713   -4.255480    1.725176
H       0.826301   -1.064699    1.969478
