21

C      -0.176860    1.688821   -0.115439
C       0.025384    0.178347    0.039790
C      -1.286884   -0.590630   -0.000309
O      -1.898015   -0.446908   -1.285516
C      -2.876697   -1.445351   -1.326706
O      -2.370714   -2.566407   -0.613281
C      -1.235803   -2.124178    0.154242
C       0.001272   -2.821558   -0.412337
O      -0.188152   -4.221546   -0.431600
H       0.780814    2.216392   -0.088156
H      -0.667087    1.916723   -1.065429
H      -0.802821    2.088340    0.690096
H       0.683599   -0.192378   -0.752648
H       0.519481   -0.038322    0.994865
H      -1.969312   -0.185797    0.767140
H      -3.811879   -1.106917   -0.846801
H      -3.066880   -1.716123   -2.370414
H      -1.386194   -2.435931    1.194075
H       0.209574   -2.428578   -1.419918
H       0.875620   -2.625431    0.217204
H      -1.050037   -4.359120   -0.844272
