16

N      -0.105318   -1.131582   -0.022278
C      -0.048212    0.023048   -0.005936
C       0.023602    1.466453   -0.023658
O       0.635967    2.090522    1.118487
C       1.330611    2.154429   -0.109311
C       2.760571    1.608976   -0.260983
C       3.131403    2.937667   -0.947431
C       2.262802    3.159404   -2.147342
C       1.693172    3.456377   -0.780381
H      -0.868209    1.963437   -0.400405
H       3.217798    1.486024    0.723329
H       2.897456    0.693530   -0.843638
H       4.055485    3.478249   -0.792028
H       2.492953    4.037683   -2.741472
H       1.893760    2.314927   -2.724637
H       1.328237    4.432425   -0.487896
