16

C      -0.152164    1.479147    0.019233
C       0.145756    0.017010    0.011430
O      -0.716460   -0.870993    0.725173
C       0.680615   -0.932688    1.013151
C       1.352606   -1.809037   -0.082982
C       0.797687   -0.827520   -1.134827
O      -0.043321   -1.873217   -1.695170
C       0.432094   -2.802447   -0.773460
N       0.180799   -4.020565   -0.643737
H       0.712717    2.055067   -0.325222
H      -0.994412    1.702976   -0.644840
H      -0.414674    1.808926    1.027739
H       0.988880   -0.798413    2.043216
H       2.407649   -2.045402    0.028376
H       1.395206   -0.310511   -1.884440
H      -0.509974   -4.336237   -1.326665
