21

C      -0.997936    1.043754   -0.453295
C       0.367749    0.576507    0.064097
C       1.108555   -0.240880   -0.979549
O       2.484367   -0.595053   -0.632323
C       2.304721   -1.943984   -1.141307
C       2.082122   -3.056355   -0.093133
C       1.384010   -2.501092    1.105790
C       0.570516   -2.749515   -0.140319
C       0.791564   -1.724254   -1.281804
H      -0.894379    1.660386   -1.352885
H      -1.639453    0.192552   -0.706397
H      -1.520503    1.639259    0.300631
H       0.989790    1.443740    0.318453
H       0.235706   -0.000610    0.982631
H       1.123651    0.329305   -1.922775
H       2.969461   -2.173394   -1.977334
H       2.593969   -4.011074   -0.086029
H       1.199151   -3.220134    1.897961
H       1.632306   -1.505934    1.450409
H      -0.255418   -3.450343   -0.123851
H       0.257864   -1.961247   -2.201219
