16

C       0.008146    1.488216   -0.158602
C       0.079118    0.003024    0.120596
O       1.095153   -0.549522    0.471540
C      -1.226192   -0.776468   -0.044965
C      -0.985224   -2.305068   -0.113989
C      -2.209018   -3.064861    0.137611
C      -3.224426   -3.663451    0.363275
C      -0.395474   -2.671087   -1.413127
N       0.061042   -2.935341   -2.440340
H       0.930765    1.972555    0.162197
H      -0.128832    1.647338   -1.234898
H      -0.853255    1.942524    0.342604
H      -1.855155   -0.560956    0.827512
H      -1.782680   -0.427737   -0.919818
H      -0.233240   -2.540366    0.650054
H      -4.115424   -4.207977    0.558631
