19

C      -0.053983   -1.167075   -0.444503
C      -0.036943   -0.000475   -0.157417
C       0.002911    1.415191    0.199319
C       1.409973    1.981088    0.234972
C       2.463440    1.403811    1.167330
C       3.633903    2.411939    1.082840
C       2.982902    3.776449    0.743534
C       1.728666    3.393814   -0.015684
O       1.953158    2.396788   -1.028194
H      -0.075073   -2.195800   -0.706291
H      -0.588074    1.995073   -0.518550
H      -0.462979    1.555651    1.184076
H       2.046156    1.356722    2.181369
H       2.754898    0.388065    0.886779
H       4.223122    2.446868    2.002068
H       4.304586    2.120218    0.272329
H       2.694070    4.324020    1.649682
H       3.646231    4.427211    0.165506
H       0.968119    4.134046   -0.255484
