22

C      -0.041720    1.576068   -0.015922
C      -0.157303    0.050149    0.069775
C       0.668203   -0.541182    1.206332
C       0.773996   -2.062696    1.339984
N       1.528465   -2.540867    0.144794
C       2.262336   -2.035653    1.336118
C       3.294644   -2.853326    2.046461
C       2.256794   -0.510852    1.106800
O       2.843899   -0.075529   -0.089809
H       0.995324    1.870539   -0.198243
H      -0.657226    1.974562   -0.828674
H      -0.372360    2.052827    0.914281
H      -1.207607   -0.238190    0.210971
H       0.157974   -0.401663   -0.876420
H       0.364738   -0.100939    2.163440
H       0.103599   -2.736726    1.861469
H       1.551997   -3.558988    0.180771
H       2.953313   -3.883897    2.195898
H       4.230281   -2.886965    1.476339
H       3.520720   -2.429492    3.030761
H       2.715660    0.057965    1.918883
H       2.575764   -0.729075   -0.751448
