20

C       0.256356    1.568526   -0.185068
C       0.109199    0.078222    0.042919
O       0.848238   -0.722015   -0.914372
C       1.348615   -1.592266    0.130610
C       2.869810   -1.585378    0.220000
C       3.199605   -0.215793    0.844253
C       2.049866    0.026794    1.848565
C       0.805321   -0.637225    1.229297
H       1.297797    1.892236   -0.114449
H      -0.113134    1.828371   -1.182334
H      -0.333580    2.126996    0.550027
H      -0.958111   -0.188520   -0.000682
H       0.907895   -2.593362    0.058040
H       3.190328   -2.400231    0.881989
H       3.336451   -1.745029   -0.756382
H       4.184083   -0.188998    1.319273
H       3.194038    0.550280    0.063067
H       2.277490   -0.471914    2.797835
H       1.901069    1.086542    2.077234
H       0.126095   -1.046010    1.978768
