22

C      -0.024211    1.520629   -0.059702
C      -0.156853    0.009908   -0.122291
O       0.793210   -0.478967   -1.064459
C       0.810642   -1.878439   -1.213289
C      -0.438357   -2.345335   -1.863845
N      -1.419365   -2.690549   -2.368206
C       2.057624   -2.275093   -2.032367
C       3.324536   -1.782006   -1.323279
C       2.103585   -3.787835   -2.278763
H       0.984828    1.808151    0.248917
H      -0.225043    1.963786   -1.038835
H      -0.738256    1.931211    0.660051
H       0.035251   -0.443118    0.863633
H      -1.172696   -0.279882   -0.427684
H       0.862603   -2.370197   -0.225858
H       1.969805   -1.759447   -2.996457
H       4.207884   -2.007123   -1.928223
H       3.286387   -0.705379   -1.149775
H       3.449094   -2.281897   -0.355002
H       1.219008   -4.143552   -2.813921
H       2.984210   -4.044005   -2.874758
H       2.173603   -4.339013   -1.333367
