19

C      -0.072376    1.528037   -0.096065
C       0.038403    0.014870    0.012135
O       0.898568   -0.506026   -1.034721
C       1.897925   -1.207977   -0.334691
C       2.915336   -1.848054   -1.230003
C       1.282107   -1.936700    0.910491
O       2.509554   -1.710955    1.678455
C       2.283857   -0.443153    0.978329
C       0.749661   -0.513913    1.248651
H       0.904027    2.003511    0.038570
H      -0.456974    1.809967   -1.080203
H      -0.756558    1.918909    0.664449
H      -0.954641   -0.440537   -0.103760
H       3.422416   -1.093530   -1.838746
H       3.653813   -2.370432   -0.617641
H       2.437983   -2.563791   -1.905909
H       0.789742   -2.905620    0.998433
H       2.990453    0.369373    1.148311
H       0.363208   -0.301772    2.243666
