14

O      -0.148469    0.073573   -0.386200
C      -0.031275    1.216260   -0.044708
C       1.310506    1.951163   -0.015421
C       2.569353    1.148780   -0.516126
C       2.678788    2.131279   -1.688965
O       1.437059    2.090906   -2.407091
C       1.510851    2.906054   -1.253517
C       1.490298    2.639647    1.250549
N       1.610608    3.200477    2.254805
H      -0.899617    1.840809    0.252397
H       3.401229    1.207014    0.186203
H       2.356526    0.113406   -0.782927
H       3.558164    2.443502   -2.237549
H       1.241975    3.953004   -1.320352
