18

C      -0.161011    1.447567    0.043100
C      -0.028124   -0.062086    0.033862
O      -1.362915   -0.618305   -0.012155
C      -1.446102   -1.950426   -0.018846
O      -0.495454   -2.699210    0.012344
C      -2.885633   -2.452450   -0.068767
C      -3.595604   -1.996314   -1.350182
O      -2.886836   -3.854476    0.034345
H       0.832131    1.904901    0.077027
H      -0.672466    1.800488   -0.856670
H      -0.726050    1.785037    0.916313
H       0.530981   -0.422181   -0.834999
H       0.475384   -0.438275    0.929435
H      -3.407621   -2.015657    0.796973
H      -3.068085   -2.372903   -2.231824
H      -4.609442   -2.403628   -1.359616
H      -3.648623   -0.906022   -1.403065
H      -1.954386   -4.117579    0.053069
