18

C       0.050081    1.526623    0.009760
C      -0.025987    0.032419   -0.028522
C       0.528860   -1.006263   -0.976398
C      -0.803078   -1.797912   -0.943754
O      -0.789003   -2.971360   -0.110486
C      -0.818316   -2.095163    1.056218
C       0.624461   -1.765367    1.416609
N       1.081810   -0.816375    0.381079
C      -1.276833   -0.871756    0.190827
H       1.046204    1.862829   -0.289882
H      -0.687003    1.978200   -0.662642
H      -0.144499    1.904391    1.020586
H       1.220414   -0.918332   -1.807680
H      -1.314146   -1.933110   -1.898691
H      -1.449662   -2.493768    1.853286
H       0.709452   -1.266035    2.388803
H       1.245072   -2.664859    1.420405
H      -2.285312   -0.475978    0.270016
