23

C       0.000027    1.530564    0.034151
C       0.015771    0.019666    0.031737
C       0.885885   -0.800331   -0.977292
C       0.694554   -1.930758    0.072686
C       0.743870   -0.805236    1.143977
C      -0.817536   -2.209695   -0.029149
C      -1.315015   -0.746137   -0.059170
C      -2.580310   -0.302855    0.616547
C      -2.479024   -0.299422   -0.895594
H       1.017360    1.928969    0.103374
H      -0.447965    1.930811   -0.882474
H      -0.566609    1.926770    0.884470
H       0.492510   -0.956053   -1.986756
H       1.916117   -0.437080   -1.023882
H       1.358609   -2.794569    0.115152
H       1.758596   -0.442551    1.329150
H       0.219492   -0.965475    2.091269
H      -1.079334   -2.763779   -0.936789
H      -1.197819   -2.767759    0.833004
H      -3.201345   -1.059241    1.086516
H      -2.597035    0.657442    1.122295
H      -2.428429    0.663159   -1.394701
H      -3.031622   -1.053477   -1.447603
