20

C       0.209781    1.440976    0.253390
C      -0.140488   -0.024172   -0.037132
C      -1.651045   -0.228378   -0.217252
C       0.632534   -0.545942   -1.255229
C       2.067894   -1.045057   -1.069562
C       0.967870   -2.025196   -1.356120
O       0.462665   -2.833117   -0.340200
C       0.342390    0.118130   -2.502906
N       0.105807    0.656214   -3.499931
H       1.284784    1.572498    0.413071
H      -0.088101    2.089593   -0.577307
H      -0.310730    1.786907    1.151736
H       0.183768   -0.639080    0.807852
H      -2.024634    0.330007   -1.082391
H      -1.885510   -1.286274   -0.363030
H      -2.191794    0.123352    0.666790
H       2.796055   -0.833856   -1.843723
H       2.441617   -1.002382   -0.052085
H       0.931916   -2.460550   -2.353593
H       1.115249   -3.513550   -0.143330
