16

C       0.004762    1.359972   -0.067386
N      -0.096238   -0.058949    0.229060
C      -1.297903   -0.685718    0.086323
N      -2.469355   -0.120804   -0.030076
C      -3.338471   -1.197941   -0.072133
O      -4.665438   -0.999544   -0.187402
C      -2.682559   -2.379119    0.007895
N      -3.066787   -3.703685    0.001136
O      -1.298164   -2.022479    0.113117
H       0.986046    1.717465    0.251723
H      -0.132311    1.588273   -1.133335
H      -0.764316    1.895417    0.492583
H       0.700269   -0.633742    0.002374
H      -4.790927   -0.043702   -0.216092
H      -2.850939   -4.207156    0.854513
H      -2.732508   -4.234761   -0.795553
