22

C       0.185878    1.721683   -1.498556
C      -0.025841    0.313668   -0.979249
C       1.119349   -0.596045   -0.585051
C       2.574668   -0.185090   -0.676105
C       0.176619   -0.076509    0.482615
C       0.610030    0.905277    1.552531
C      -0.507828    1.669886    2.270931
N      -1.695638    1.749046    1.603928
O      -0.329869    2.194308    3.352862
H       1.038263    2.222552   -1.034501
H       0.365756    1.709312   -2.579023
H      -0.693956    2.349194   -1.317171
H      -0.853821   -0.193219   -1.471085
H       0.967839   -1.643066   -0.836862
H       2.740734    0.865399   -0.427637
H       3.188580   -0.781980    0.007253
H       2.958856   -0.345411   -1.689507
H      -0.524751   -0.818862    0.858093
H       1.173492    0.396179    2.341008
H       1.287147    1.666327    1.151889
H      -1.848124    1.274372    0.732230
H      -2.457295    2.236371    2.045748
