23

C      -0.025179    1.572387   -0.017164
C      -0.010001    0.042651   -0.008034
C       0.726735   -0.530104    1.220046
C       0.755268   -1.988800    1.250061
C       0.774104   -3.193871    1.244985
C       0.784688   -4.655785    1.271019
C       1.571376   -5.202875    2.477834
C      -0.655469   -5.194188    1.247395
O      -0.586517   -6.607024    1.131032
H       0.991935    1.979785   -0.034569
H      -0.552619    1.957877   -0.894873
H      -0.525000    1.970461    0.873108
H      -1.034884   -0.345105   -0.017959
H       0.470929   -0.335877   -0.916903
H       1.754726   -0.142556    1.236687
H       0.250729   -0.151004    2.134880
H       1.266696   -5.023398    0.354399
H       1.541916   -6.294387    2.474418
H       2.612590   -4.872555    2.442712
H       1.133753   -4.843103    3.414666
H      -1.170319   -4.887996    2.171393
H      -1.194978   -4.746866    0.399897
H      -1.480643   -6.957109    1.173098
