21

C       0.059845    1.478602   -0.071536
C       0.040651   -0.037422    0.014520
O       0.597166   -0.558641   -1.186866
C       0.637096   -1.930867   -1.248004
C      -0.526114   -2.949528   -1.264167
C       0.758709   -3.786751   -1.436196
C       1.456384   -2.700166   -2.327077
C       2.735409   -2.709119   -1.464497
C       1.592852   -2.906114   -0.446776
H       1.083802    1.843318   -0.192513
H      -0.528719    1.821263   -0.927246
H      -0.360811    1.917139    0.838339
H       0.624972   -0.387476    0.879069
H      -0.988251   -0.405764    0.143032
H      -1.083659   -3.095277   -0.333254
H      -1.204250   -2.905612   -2.122650
H       0.857989   -4.863220   -1.557440
H       1.342175   -2.589737   -3.406512
H       3.417273   -3.553430   -1.606503
H       3.290774   -1.769091   -1.404838
H       1.638918   -3.035230    0.635796
