14

C      -0.022318    1.417552   -0.163732
N      -0.007078   -0.034935   -0.228442
C      -1.045010   -0.669509    0.110812
O      -2.193739   -0.016198    0.541872
N      -3.368938   -0.667261    0.928163
C      -3.355051   -1.952464    0.870457
C      -2.246050   -2.765876    0.447222
C      -1.126510   -2.124025    0.079903
F      -0.049429   -2.760522   -0.324917
H       0.947353    1.797096   -0.491635
H      -0.804052    1.844784   -0.805317
H      -0.215498    1.776639    0.855596
H      -4.288100   -2.413740    1.179465
H      -2.316015   -3.845474    0.427549
