16

C      -0.065051    1.555581    0.000780
C       0.048408    0.029905   -0.020874
N       0.830211   -0.466659   -1.160782
C       1.780861   -1.174547   -0.679198
C       2.826070   -1.876561   -1.480216
N       1.791067   -1.266440    0.717430
C       0.740998   -0.520354    1.237836
O       0.475178   -0.359475    2.403565
H       0.926909    2.016711    0.014336
H      -0.593834    1.906380   -0.888320
H      -0.608152    1.872621    0.894858
H      -0.960081   -0.402061   -0.069123
H       2.656489   -1.680944   -2.538916
H       3.828390   -1.529220   -1.205569
H       2.792519   -2.957459   -1.303879
H       2.471583   -1.748079    1.282823
