15

C       0.000917    1.394368   -0.019677
O       0.008876   -0.014972    0.092174
C      -1.278714   -0.606761    0.026142
C      -1.778230   -0.771096   -1.419529
C      -1.201833   -1.902682    0.702761
C      -1.168663   -2.979705    1.247371
C      -1.126442   -4.197006    1.864702
N      -1.094245   -5.232963    2.389168
H       1.033419    1.723318    0.113576
H      -0.352241    1.738046   -1.001966
H      -0.623974    1.857391    0.758882
H      -2.000134    0.014706    0.584496
H      -1.871728    0.206738   -1.898609
H      -1.072968   -1.380229   -1.989324
H      -2.758410   -1.255083   -1.433136
