18

C      -0.178502    1.528250    0.019508
C      -0.065104    0.015329   -0.019115
O      -1.373045   -0.533448    0.038442
C      -1.446820   -1.894441    0.012761
C      -0.467409   -2.862697   -0.059206
N      -1.112773   -4.078572   -0.049932
C      -2.477456   -3.901223    0.024545
C      -2.709436   -2.547984    0.065362
O      -3.920286   -1.924870    0.142920
H       0.815908    1.982144   -0.023259
H      -0.762531    1.893114   -0.830127
H      -0.668898    1.854856    0.940886
H       0.432611   -0.320099   -0.941653
H       0.526592   -0.358250    0.830383
H       0.604697   -2.792003   -0.114143
H      -0.654184   -4.968641   -0.098513
H      -3.162767   -4.730983    0.043255
H      -3.743953   -0.977252    0.153976
