18

C       0.289172    1.597593   -0.041819
C       0.034056    0.116439    0.100727
O       0.803071   -0.691082   -0.845729
C       1.249780   -1.594164    0.190624
C       2.638568   -1.205794    0.762700
N       1.998141   -0.193059    1.651010
C       0.642314   -0.661155    1.287976
C       0.939521   -2.979195   -0.048959
C       0.693165   -4.142626   -0.228430
H       1.329439    1.826033    0.198468
H       0.074541    1.917126   -1.066242
H      -0.362302    2.162457    0.634156
H      -1.033897   -0.116039   -0.017656
H       3.116455   -2.035667    1.295025
H       3.332566   -0.786424    0.028311
H       2.217157   -0.323304    2.630278
H      -0.010045   -0.983184    2.100010
H       0.471549   -5.167646   -0.396927
