14

C      -0.015038   -1.247893   -0.119582
C       0.000841   -0.049306   -0.040208
C       0.005358    1.406537    0.051340
C      -0.611797    1.948197    1.341926
C       0.192373    2.811373    1.962534
C       1.491999    2.927552    1.234221
O       2.215310    1.674382    1.178913
C       1.409320    2.036869    0.066511
H      -0.016596   -2.307711   -0.184299
H      -0.543478    1.811654   -0.812387
H      -1.580813    1.608686    1.686587
H      -0.027275    3.335426    2.884205
H       2.111190    3.818030    1.275179
H       1.934257    2.202561   -0.869776
