15

C       0.018616    1.471285    0.008195
C      -0.098112   -0.010082    0.051547
C      -1.113664   -0.876167   -0.205731
C      -0.522402   -2.144137    0.036464
O      -1.192257   -3.309828   -0.093780
C      -0.482309   -4.483536   -0.054880
N      -1.130780   -5.559951   -0.051611
N       0.730905   -2.063027    0.412530
O       1.004796   -0.693199    0.415430
H       0.796765    1.780203   -0.697104
H      -0.929245    1.914946   -0.300894
H       0.287577    1.869557    0.991795
H      -2.121392   -0.665823   -0.519009
H       0.598269   -4.333281   -0.043035
H      -0.488411   -6.350246   -0.045491
