17

O      -0.221081    1.360358    0.133427
C      -0.079926   -0.017322   -0.019963
C      -0.490968   -0.697804   -1.298729
C      -1.283366   -0.912374   -0.020920
C      -0.871306   -2.003417    1.023022
O      -0.138865   -1.200889    1.969117
C       0.845255   -0.751794    1.019284
C       1.326536   -2.083712    0.443337
C       0.251010   -2.870567    0.447686
H       0.460205    1.789653   -0.395018
H      -0.968039   -0.051531   -2.030222
H       0.105121   -1.501700   -1.714231
H      -2.277325   -0.490459    0.056630
H      -1.703393   -2.509710    1.509135
H       1.575291   -0.096904    1.492385
H       2.311534   -2.279142    0.042470
H       0.135564   -3.868097    0.046954
