17

C      -0.537459    1.525150    0.142286
C      -0.038933    0.094971   -0.002319
O      -1.090698   -0.846762    0.040403
C       0.909119   -0.197294   -1.212932
N       1.972498   -0.500389   -0.232350
C       3.266155   -0.930579   -0.339143
O       3.974430   -1.174553    0.612335
C       1.148605   -0.289414    0.892637
N       1.267895   -0.404207    2.138837
H       0.278921    2.246811    0.040511
H      -1.295069    1.733787   -0.618604
H      -0.986130    1.663004    1.130777
H      -1.320371   -0.975994    0.968427
H       0.592184   -1.061223   -1.800216
H       1.133521    0.654566   -1.859179
H       3.595194   -1.027981   -1.391763
H       2.202206   -0.728227    2.393928
