17

C      -0.019816    1.526811    0.052065
C      -0.003879    0.033265   -0.051008
C      -0.034813   -0.674072   -1.213709
N      -0.018217   -2.042675   -1.249220
C       0.028871   -2.719007   -0.138689
C       0.047312   -4.216443   -0.158222
C       0.066323   -2.078192    1.189689
O       0.110653   -2.659481    2.261583
N       0.045704   -0.685919    1.114891
H       0.877046    1.899838    0.560713
H      -0.059064    1.975473   -0.941858
H      -0.889893    1.876873    0.620098
H      -0.074355   -0.162115   -2.167567
H       0.017743   -4.575418   -1.187423
H       0.944047   -4.596488    0.343590
H      -0.804372   -4.618831    0.401389
H       0.070361   -0.212744    2.009201
