23

C       0.001407    1.546691    0.022821
C      -0.046749    0.010542   -0.002848
C      -1.519649   -0.442453    0.032344
C       0.652073   -0.498025   -1.284129
C       0.643333   -2.028387   -1.417759
C       1.122759   -2.710497   -0.157479
O       2.346972   -2.223598    0.396476
C       1.133336   -1.990372    1.128866
C       0.695604   -0.539958    1.241625
H       1.031533    1.911606   -0.053387
H      -0.567686    1.972789   -0.811017
H      -0.425174    1.940039    0.952601
H      -2.045729   -0.146557   -0.882240
H      -1.615726   -1.527297    0.137671
H      -2.041932    0.015666    0.879427
H       0.173082   -0.052791   -2.164087
H       1.691200   -0.150141   -1.278477
H      -0.366237   -2.392829   -1.644170
H       1.276442   -2.336337   -2.258857
H       1.030016   -3.798054   -0.141064
H       1.067751   -2.580134    2.043834
H       1.595718    0.057718    1.431057
H       0.055934   -0.425406    2.124921
