13

N       0.105553    1.401354    0.126191
C      -0.044819    0.018439    0.036594
C      -1.148709   -0.808667    0.017610
C      -0.612165   -2.123815    0.004895
C      -1.391157   -3.372224   -0.023608
O      -0.938206   -4.490360   -0.060338
N       0.723108   -2.117395    0.010305
N       1.037125   -0.810873    0.039502
H       0.737786    1.789415   -0.564111
H      -0.782073    1.882212    0.073799
H      -2.185839   -0.514632   -0.000393
H      -2.491639   -3.195902   -0.007547
H       2.006384   -0.542057    0.096567
