16

O      -0.058269    0.024170   -0.042284
C      -0.058080    1.221735   -0.003561
C      -1.261343    2.190827   -0.012188
N      -1.407068    2.623061    1.423623
C      -0.349510    3.656571    1.163436
C       1.034276    3.007973    1.357717
C       1.139500    2.192068    0.043849
O       0.732548    3.153876   -0.947646
C      -0.524189    3.504930   -0.390483
H      -2.146401    1.819382   -0.526362
H      -2.308962    3.081679    1.529909
H      -0.484403    4.614919    1.664347
H       1.829442    3.758764    1.371651
H       1.076830    2.401770    2.264233
H       2.104722    1.758938   -0.208061
H      -1.018869    4.272802   -0.980915
