14

C       0.078069   -1.134306    0.279615
C       0.016218    0.049710    0.086589
C      -0.044543    1.494897   -0.160547
O      -0.739408    2.196052    0.875344
C       0.159126    3.004568    1.622965
C       1.451392    2.970924    0.832594
C       1.332877    2.118586   -0.185898
C       2.592831    3.735597    1.184895
N       3.504117    4.376752    1.500585
H       0.125007   -2.181564    0.452759
H      -0.582368    1.669119   -1.104191
H      -0.253838    4.017087    1.709600
H       0.302154    2.608244    2.639132
H       2.088571    1.859139   -0.913596
