18

C      -0.026314    1.591976    0.141634
C       0.004115    0.079642    0.084621
C      -1.251569   -0.572012   -0.484515
O      -1.493143   -0.225197   -1.837769
C       1.254456   -0.687325   -0.184251
O       2.414375    0.004966    0.347815
C       1.912952   -0.152511    1.643764
N       2.435472    0.115895    2.749915
C       0.637415   -0.784592    1.195958
H       0.923085    2.001926    0.488376
H      -0.213999    2.005274   -0.855635
H      -0.817634    1.940358    0.814194
H      -1.145475   -1.662374   -0.470223
H      -2.111362   -0.321076    0.155269
H      -1.815343    0.680481   -1.864869
H       1.429267   -1.421176   -0.959423
H       3.365810    0.520406    2.630691
H       0.108743   -1.582724    1.697490
