19

C      -0.064460    1.548800   -0.101794
C       0.020976    0.024075    0.017151
C       0.713915   -0.481783    1.294917
C      -0.036215   -0.088098    2.572947
C       0.895699   -2.018776    1.209686
C       1.685988   -2.583219    2.297037
C       2.348184   -3.029066    3.196337
H       0.929612    2.005982   -0.040121
H      -0.504046    1.840192   -1.060802
H      -0.681413    1.987346    0.688075
H      -0.989604   -0.405188   -0.035001
H       0.561950   -0.368953   -0.853655
H       1.718880   -0.039571    1.335171
H      -1.065639   -0.467413    2.552633
H       0.457093   -0.504193    3.455540
H      -0.082848    0.997303    2.695542
H      -0.094001   -2.496441    1.192174
H       1.371144   -2.272200    0.253371
H       2.930044   -3.433950    3.986606
