18

C       0.042026    1.493305   -0.130710
C       0.024474   -0.000091    0.032499
O       0.439054   -0.641927   -1.196692
C       0.369874   -1.979291   -0.885825
N       0.638886   -2.951043   -1.642793
C      -0.091973   -1.980460    0.535936
C       0.649898   -0.780437    1.232571
C      -0.624053   -0.506271    2.065931
C      -1.152336   -0.823308    0.647129
H       1.048883    1.836183   -0.386339
H      -0.633773    1.795730   -0.936003
H      -0.270480    1.992854    0.789163
H       0.930167   -2.617145   -2.563849
H      -0.235393   -2.928417    1.046844
H       1.692181   -0.766502    1.553933
H      -0.856131   -1.246311    2.834526
H      -0.771804    0.506918    2.446604
H      -2.184041   -0.858734    0.294782
