20

C      -0.001135    1.491277   -0.046915
C       0.073863   -0.000775    0.013669
C       0.376117   -1.008166   -1.030680
C       0.499434   -2.058619    0.117612
C      -1.044741   -2.083939    0.151723
C      -1.537004   -1.913258    1.588357
C      -0.374298   -1.143276    2.289085
C       0.617045   -0.888750    1.147288
N      -1.048977   -0.787970   -0.629082
H       0.989640    1.941515    0.079207
H      -0.408556    1.812979   -1.009443
H      -0.654430    1.885661    0.740122
H       0.732118   -0.937741   -2.050162
H       1.130495   -2.943814    0.168057
H      -1.543239   -2.858408   -0.433877
H      -2.480283   -1.358463    1.602958
H      -1.721578   -2.883673    2.060243
H      -0.708156   -0.211496    2.756193
H       0.084309   -1.748881    3.077956
H       1.634963   -0.625451    1.441770
