19

C      -0.041580    1.537961   -0.181546
C       0.024908    0.017144    0.043243
O       0.646521   -0.271887    1.266417
C      -1.369745   -0.606892    0.007822
O      -1.808614   -1.118689    1.035881
C      -2.155039   -0.548249   -1.228295
C      -3.155447   -1.685253   -1.495449
C      -3.694526   -0.380516   -1.053067
O      -4.246945   -0.180742    0.191620
H       0.967713    1.947679   -0.097076
H      -0.438292    1.791570   -1.168918
H      -0.668038    2.006695    0.582899
H       0.603029   -0.433946   -0.780850
H      -0.032432   -0.713200    1.801672
H      -1.688968   -0.076710   -2.084909
H      -3.271883   -1.989329   -2.529588
H      -3.143829   -2.489824   -0.767518
H      -4.165555    0.260327   -1.791147
H      -3.693007   -0.652762    0.835791
