17

O      -0.102107    1.418402    0.035512
C       0.029180    0.056214    0.018238
C      -1.030032   -0.993552    0.116308
C      -0.036608   -0.976725   -1.083474
C       1.172316   -1.744731   -0.531271
O       0.979084   -3.123364   -0.285339
C       0.034370   -3.234336    0.795909
C      -0.285908   -1.793527    1.198687
C       0.967237   -0.954353    0.792304
H       0.606400    1.803117   -0.492778
H      -2.094459   -0.898135   -0.053415
H      -0.395335   -0.882026   -2.100096
H       2.111084   -1.607282   -1.069671
H      -0.856617   -3.777299    0.455579
H       0.495930   -3.808456    1.610627
H      -0.659880   -1.659190    2.213912
H       1.780695   -0.736778    1.479794
