18

C      -0.009278    1.528866    0.041448
C      -0.025517    0.021356   -0.011804
C       0.377041   -0.820246   -1.266180
C      -0.372102   -1.925742   -0.497510
O       0.417001   -2.125646    0.696918
C       0.735605   -0.757580    1.068188
C      -1.357992   -0.831687   -0.032505
O      -2.084823   -1.043978    1.139259
H       1.012571    1.923393   -0.000185
H      -0.566886    1.959031   -0.796638
H      -0.469338    1.888954    0.968525
H      -0.136736   -0.502469   -2.175937
H       1.440103   -0.982356   -1.454995
H      -0.660637   -2.891362   -0.909044
H       1.820045   -0.602415    1.037386
H       0.372228   -0.550077    2.081421
H      -2.042152   -0.488388   -0.811779
H      -1.579478   -1.686506    1.655175
