16

O       0.149696    1.485320    0.049741
C       0.133871    0.078879    0.152789
C      -1.283862   -0.483495    0.026797
C      -2.221823    0.098435    1.100898
C      -3.574372   -0.438670    0.999685
N      -4.632128   -0.892597    0.898843
O      -1.755729   -0.093341   -1.270018
C      -2.388045   -1.009045   -2.048011
O      -2.766177   -0.750546   -3.146521
H      -0.180862    1.708763   -0.828575
H       0.765265   -0.397525   -0.611115
H       0.544830   -0.173727    1.135670
H      -1.258802   -1.578182    0.101546
H      -1.819686   -0.128553    2.094279
H      -2.239224    1.186935    0.997420
H      -2.495763   -1.990416   -1.551143
