19

C      -0.237812    1.501094   -0.007529
C       0.021638   -0.012760    0.021046
C       0.809676   -0.431627   -1.221593
O       1.149496   -1.812354   -1.225701
C       1.800023   -2.288005   -0.109336
N       2.469280   -3.370635   -0.158132
C       1.641013   -1.531380    1.120768
C       0.782354   -0.496227    1.240166
N       0.474042    0.092997    2.449400
H       0.694013    2.070391    0.081475
H      -0.711872    1.784807   -0.952199
H      -0.915075    1.815026    0.792330
H      -0.948994   -0.528661    0.007534
H       0.219121   -0.268917   -2.127180
H       1.724255    0.175761   -1.294276
H       2.455849   -3.735912   -1.112123
H       2.191034   -1.913704    1.973089
H       1.070937   -0.156945    3.224366
H       0.238801    1.072875    2.434588
