12

N       0.059845    1.341103    0.077149
C       0.029761   -0.014053    0.016626
C      -1.179951   -0.747930    0.064400
N      -1.181658   -2.064812    0.033177
N      -0.031312   -2.736954   -0.040062
C       1.078278   -2.000074   -0.081467
O       2.218717   -2.696176   -0.155405
N       1.185551   -0.668095   -0.062429
H       0.936524    1.797513   -0.115702
H      -0.783546    1.868885   -0.064705
H      -2.146274   -0.257459    0.127860
H       2.935346   -2.048024   -0.176534
