18

C      -0.017619    1.620616   -0.030654
C       0.056047    0.102133    0.024918
N       1.114583   -0.522313   -0.792605
C       1.356066   -0.531735   -2.210592
C       1.754426   -1.176044    0.235973
O       2.703857   -1.914012    0.268581
C       0.767003   -0.554390    1.231685
C       0.964345   -0.107884    2.609591
O       0.132196   -1.232164    2.287205
H       0.954475    2.068413    0.197350
H      -0.332372    1.965874   -1.021029
H      -0.750720    1.990506    0.693194
H      -0.929441   -0.345598   -0.158867
H       1.534930    0.477904   -2.598623
H       2.246643   -1.139303   -2.389088
H       0.513744   -0.970777   -2.760054
H       1.896074   -0.349283    3.117412
H       0.437121    0.773676    2.970813
