19

O      -0.707552    0.802977    0.707593
C       0.059280    0.994208   -0.200133
C       1.270539    1.900791   -0.137293
C       1.232086    2.973067   -1.205766
C       0.208572    4.116531   -1.383622
C       1.211118    4.316925   -2.534488
C       2.433752    3.886377   -1.653930
C       2.922660    2.867261   -2.701064
C       1.385291    2.777126   -2.765202
H      -0.086067    0.496315   -1.187264
H       1.326882    2.338676    0.864365
H       2.161826    1.273915   -0.289732
H      -0.811801    3.829583   -1.659310
H       0.191811    4.883789   -0.602318
H       1.225960    5.081204   -3.312174
H       3.012384    4.538541   -0.997010
H       3.426708    3.275008   -3.582801
H       3.460772    1.988411   -2.330634
H       0.754152    2.152406   -3.400027
