14

C      -0.002233    1.488454   -0.052526
C       0.002241    0.033599   -0.018021
C       0.009152   -1.168775    0.008481
C       0.003347   -2.628769    0.041249
C      -1.383076   -3.197159    0.058784
N      -1.892442   -3.888782    1.035782
O      -3.143983   -4.196895    0.623246
N      -3.343377   -3.653587   -0.645728
N      -2.290292   -3.057548   -0.979004
H       1.017057    1.887106   -0.010066
H      -0.467733    1.860447   -0.971413
H      -0.557768    1.903262    0.795277
H       0.528594   -3.028920   -0.835389
H       0.528526   -3.002891    0.926221
