15

C      -0.066104   -1.271826   -0.103959
C      -0.055640   -0.070260   -0.053637
C      -0.056533    1.375499    0.020517
C      -0.035830    2.068793    1.388705
C       1.490823    1.785966    1.511028
C       1.851743    3.250344    1.774348
C       0.714705    3.271775    0.749737
N       1.324693    2.061229   -0.013305
H      -0.072972   -2.332562   -0.155196
H      -0.733890    1.805503   -0.726605
H      -0.793534    2.075445    2.178578
H       1.971059    0.870102    1.853886
H       1.629706    3.644478    2.768988
H       2.830766    3.577739    1.415189
H       0.281200    4.105453    0.194592
