18

C      -0.178878    1.531027    0.354002
C      -0.108673    0.051549   -0.065869
C       0.945267   -0.702848    0.751763
C      -1.497692   -0.564053    0.019529
C      -1.795406   -1.889894    0.613503
O      -2.094349   -0.700884    1.324817
C      -2.505723   -0.120639   -1.003344
O      -2.236075    0.447801   -2.030091
H       0.803930    2.001164    0.255687
H      -0.882109    2.088721   -0.269556
H      -0.496203    1.619173    1.398116
H       0.165667    0.014155   -1.126813
H       0.648515   -0.770968    1.803869
H       1.113065   -1.715295    0.372267
H       1.901253   -0.172922    0.709753
H      -2.658287   -2.459318    0.267768
H      -0.971733   -2.483047    1.001637
H      -3.551779   -0.375008   -0.719807
