18

C       0.050861    1.624692    0.458162
C       0.052263    0.183741   -0.083862
C      -1.283803   -0.387530   -0.207500
C      -2.395500   -0.840998   -0.309002
C      -3.717879   -1.420732   -0.404138
N      -4.162532   -1.901294   -1.751334
C      -4.656853   -3.197894   -1.223755
C      -3.949138   -2.881288    0.100239
O      -3.668397   -3.483878    1.086213
H       1.074023    2.004993    0.531493
H      -0.517096    2.287246   -0.200537
H      -0.403873    1.665468    1.451601
H       0.544040    0.159192   -1.064813
H       0.658119   -0.455563    0.571091
H      -4.456316   -0.769490    0.092562
H      -4.878380   -1.319265   -2.169871
H      -5.744648   -3.286012   -1.089201
H      -4.297920   -4.078696   -1.766660
