21

C      -1.004475    0.769291    0.692822
C       0.047957   -0.269249    0.312778
O      -0.452750   -1.597033    0.233913
C      -1.235776   -1.899377   -0.903569
C      -2.734032   -2.134071   -0.581451
O      -3.428221   -2.236775   -1.794801
C      -2.947815   -3.411254    0.241249
C      -2.475965   -3.446459    1.670279
O      -3.502678   -4.349509   -0.295316
H      -0.536473    1.753281    0.802614
H      -1.782333    0.855242   -0.072287
H      -1.480186    0.506931    1.642638
H       0.526593    0.004855   -0.639491
H       0.833044   -0.304401    1.074891
H      -1.195241   -1.095648   -1.648570
H      -0.834365   -2.805648   -1.375500
H      -3.101166   -1.276905    0.003320
H      -3.759458   -3.151276   -1.812280
H      -3.088101   -2.758993    2.266809
H      -2.573797   -4.455780    2.071902
H      -1.445903   -3.086653    1.736482
