19

C      -0.949312    1.191343    0.001105
C      -0.072599   -0.050159   -0.064301
C       1.172635   -0.061215   -1.001138
C       2.040311   -0.707425    0.136607
C       2.848608    0.350255    0.878878
O       3.974849    0.748151    0.802550
C       1.663141    0.700711    1.805572
C       0.845586   -0.446967    1.125172
O       0.428372   -1.482258    1.968148
H      -0.361181    2.096365    0.187200
H      -1.485682    1.340212   -0.942296
H      -1.700611    1.110067    0.795336
H      -0.688870   -0.929178   -0.282351
H       1.079549   -0.678941   -1.895312
H       1.518189    0.930500   -1.306695
H       2.475869   -1.686122   -0.060618
H       1.892372    0.463254    2.849304
H       1.289485    1.726372    1.748333
H      -0.240352   -1.136546    2.569826
