17

C      -0.159201    1.477654    0.481980
C       0.044242    0.007375    0.192519
C       1.377306   -0.498369   -0.327392
C       0.936438   -0.841158    1.058758
O       1.660855   -0.191077    2.095635
C       1.318614   -0.495776    3.348044
O       0.477549   -1.286250    3.696032
C       2.143688    0.286819    4.375635
O       2.961025    1.119951    4.104007
H       0.745314    1.928578    0.898002
H      -0.418843    2.019759   -0.432923
H      -0.970674    1.628335    1.202128
H      -0.836670   -0.510254   -0.178109
H       1.403064   -1.288193   -1.069549
H       2.177335    0.229849   -0.409383
H       0.638469   -1.847214    1.324653
H       1.879709   -0.009253    5.410644
