19

C       0.037690    1.632600   -0.331469
C       0.174863    0.132446   -0.187923
C       1.442978   -0.613181   -0.414732
O       2.573991    0.125957    0.034819
C       2.147668   -0.011216    1.423456
C       2.228800    1.250572    2.255934
C       0.809413   -0.633792    0.985837
C       0.126534   -1.652421    1.700768
C      -0.444955   -2.504142    2.332139
H       1.010698    2.121699   -0.264104
H      -0.387894    1.870955   -1.312127
H      -0.625124    2.055372    0.430144
H      -0.686371   -0.434005   -0.537654
H       1.608638   -1.408880   -1.132613
H       2.757377   -0.798017    1.886245
H       3.261959    1.612271    2.282077
H       1.590727    2.048476    1.874856
H       1.925414    1.024408    3.283640
H      -0.949834   -3.258137    2.883014
