16

C      -0.078845    1.426261    0.071723
N      -0.002449   -0.023423    0.028678
C      -1.084618   -0.673737    0.029062
N      -1.230774   -2.046382   -0.008009
C      -2.587184   -2.366955   -0.072534
C      -3.272894   -1.219034   -0.011558
C      -4.714436   -0.881516    0.005321
O      -2.371153   -0.160440    0.065122
H       0.903365    1.841454   -0.170659
H      -0.809852    1.841178   -0.636899
H      -0.354435    1.793608    1.071058
H      -0.454214   -2.657396   -0.182651
H      -2.938121   -3.383016   -0.126835
H      -4.992965   -0.358270    0.927613
H      -4.980962   -0.227704   -0.833261
H      -5.311608   -1.793711   -0.066007
