13

C      -0.035661    1.379929    0.046889
O       0.023709   -0.053522   -0.039439
C       0.624350   -0.573995   -1.089697
N       1.139746    0.198009   -2.006258
C       1.752988   -0.374665   -3.077821
O       2.276943    0.151110   -4.006201
O       1.768040   -1.833849   -3.085613
C       1.201866   -2.476475   -2.081319
N       0.619124   -1.951100   -1.062824
H       0.970754    1.802710    0.069306
H      -0.574716    1.791570   -0.808737
H      -0.565194    1.585856    0.976304
H       1.268485   -3.557305   -2.184678
