15

C       0.027947   -1.186243   -0.013882
C       0.023153    0.015916    0.012794
C       0.008639    1.438443    0.036554
C       0.278572    2.287823   -1.178376
C       1.187669    2.467114    0.015595
C       0.437804    3.219563    1.121222
N      -0.636037    2.186401    1.122203
C       2.589564    2.232856   -0.027001
N       3.733408    2.055652   -0.051579
H       0.039541   -2.248314   -0.027841
H       0.726305    1.767197   -2.017454
H      -0.411016    3.087567   -1.439514
H       0.972476    3.235094    2.073959
H       0.128668    4.237397    0.859131
H      -1.560222    2.531772    0.875662
