20

C       0.495214    1.484385    0.045242
C       0.183022    0.016972   -0.041137
C      -0.135619   -0.615513   -1.191492
C      -0.288976    0.070383   -2.529025
C      -0.293544   -2.095406   -1.193916
O      -0.557313   -2.720773   -2.204625
C      -0.052552   -2.815235    0.132228
N      -0.389078   -2.028249    1.314742
C       0.266373   -0.727253    1.277429
H       1.414581    1.644927    0.622350
H       0.619872    1.951784   -0.931965
H      -0.300318    2.018398    0.582200
H       0.680576    0.370481   -2.944264
H      -0.745869   -0.624354   -3.235240
H      -0.910739    0.967546   -2.462057
H      -0.613664   -3.753027    0.123863
H       1.014218   -3.081519    0.180175
H      -1.394563   -1.882178    1.328951
H       1.330080   -0.862509    1.535860
H      -0.150266   -0.099739    2.074947
