19

C       0.062079    1.553727   -0.102163
C       0.019222    0.038012    0.114922
C      -1.398787   -0.555973    0.024060
C      -2.134855   -0.584054   -1.364764
N      -2.361125   -2.067173   -1.295349
C      -1.019338   -2.671301   -1.260498
C      -1.549547   -2.091174   -0.012616
C      -2.253469    0.023739    1.059119
N      -2.912352    0.489482    1.887449
H       1.090414    1.920340   -0.040842
H      -0.330246    1.826683   -1.087789
H      -0.529851    2.079866    0.652308
H       0.645368   -0.461821   -0.630692
H       0.438321   -0.212810    1.096339
H      -3.084407   -0.049691   -1.372417
H      -1.527650   -0.267633   -2.219376
H      -1.041366   -3.753609   -1.341934
H      -0.206251   -2.193653   -1.801879
H      -1.844029   -2.691547    0.841335
