18

C       0.701943   -0.714764    1.420011
N       0.060314   -0.111223    0.245901
C      -1.267228   -0.610390   -0.005525
C      -2.342175    0.069313    0.826005
O      -2.094711    1.021381    1.529201
C      -1.710309   -0.880338   -1.500537
C      -0.681445   -2.025778   -1.595998
C      -1.458033   -2.144371   -0.262809
O      -2.709363   -1.844816   -0.989303
H       1.662619   -0.221197    1.588670
H       0.110070   -0.638529    2.344458
H       0.905409   -1.773407    1.226589
H      -0.026617    0.886526    0.421089
H      -3.364973   -0.334112    0.728570
H      -2.039866   -0.161217   -2.250588
H      -0.926933   -2.794151   -2.329426
H       0.373030   -1.760139   -1.556275
H      -1.485246   -2.954839    0.466276
