21

C      -0.136358    1.476320   -0.074536
C       0.054895   -0.021101    0.036447
C       1.408883   -0.651020   -0.185983
C       0.781790   -0.693393    1.176501
C       1.265516   -0.096797    2.502168
O       0.981692    1.273881    2.690958
C       0.377400   -1.134209    3.250383
C       0.230174   -1.925130    1.919813
O      -1.030044   -2.435581    1.559371
H       0.733313    2.015151    0.305092
H      -0.295020    1.759224   -1.121429
H      -1.002738    1.815261    0.502608
H      -0.779536   -0.610161   -0.341231
H       1.473789   -1.577831   -0.748377
H       2.250725    0.021709   -0.327528
H       2.336590   -0.293441    2.656993
H       1.354335    1.541498    3.537035
H       0.795969   -1.653858    4.115435
H      -0.573009   -0.667253    3.528856
H       0.911352   -2.780318    1.867739
H      -1.658493   -1.705699    1.588562
