16

N      -0.182106   -1.196701   -0.228984
C      -0.100172   -0.049402   -0.110598
C      -0.002511    1.395458    0.051162
C      -0.234019    2.034305    1.427163
C       1.006190    1.919385    2.298259
C       2.077131    0.901104    1.927540
O       2.423035    1.203793    0.564078
C       1.434477    2.068152    0.064903
C       0.952897    2.966787    1.229654
H      -0.630060    1.883254   -0.700694
H      -1.206493    2.251256    1.850965
H       0.887464    2.210225    3.334907
H       2.973697    1.015252    2.546631
H       1.728980   -0.135144    2.000005
H       1.775502    2.501707   -0.872941
H       1.054680    4.035430    1.350906
