21

O       0.332397    1.401595    0.121121
C       0.163213   -0.004089    0.089070
C       0.228387   -0.574525    1.527661
C      -1.328323   -0.575878    1.582532
C      -1.947710    0.661613    2.243690
C      -3.323110    1.002098    1.645696
C      -3.280262    1.060633    0.137954
C      -2.370615    0.409922   -0.591692
C      -1.335369   -0.469455    0.028929
H      -0.274341    1.787676   -0.520755
H       0.834714   -0.453810   -0.655026
H       0.649107   -1.583428    1.548064
H       0.756952    0.052037    2.249767
H      -1.788473   -1.487062    1.976724
H      -2.025350    0.515255    3.327077
H      -1.284162    1.515884    2.079513
H      -4.075938    0.263394    1.960058
H      -3.674694    1.962265    2.041842
H      -4.044741    1.654435   -0.358296
H      -2.391740    0.482874   -1.678204
H      -1.364499   -1.467112   -0.425556
