21

C      -0.450293    1.091959   -1.396826
C      -0.132178   -0.155777   -0.599311
C       1.279226   -0.655164   -0.370110
C       2.507556    0.048845   -0.911992
C       0.461947   -0.129596    0.796791
C       0.820239    1.143399    1.515758
O      -0.322966    1.631664    2.244196
C      -0.821994    2.835650    1.921599
O      -1.777949    3.308779    2.459572
H       0.280937    1.891882   -1.254953
H      -0.474966    0.867764   -2.468833
H      -1.432690    1.490351   -1.121546
H      -0.870144   -0.940594   -0.745118
H       1.384700   -1.737276   -0.379247
H       2.406143    1.136614   -0.932965
H       3.391996   -0.186692   -0.309881
H       2.713545   -0.275552   -1.937810
H       0.082533   -0.883330    1.481350
H       1.601977    0.961490    2.260635
H       1.181898    1.923171    0.837478
H      -0.250670    3.335946    1.114077
