17

C       0.256031    1.635189   -0.064644
C       0.045642    0.127233    0.002573
C       0.509935   -0.764264   -1.199350
C       1.299997   -1.649329   -0.217790
C       1.305889   -3.137665   -0.120616
N       2.539522   -2.403211   -0.409604
C       1.019511   -0.670593    0.903963
O       1.410284   -0.536071    2.027152
H       1.283363    1.877120   -0.356542
H      -0.420247    2.097764   -0.790363
H       0.072195    2.089074    0.913594
H      -0.987587   -0.101477    0.289835
H      -0.281661   -1.257189   -1.767168
H       1.158787   -0.217809   -1.891227
H       1.272366   -3.604531    0.859793
H       0.811788   -3.688425   -0.917613
H       2.751666   -2.448470   -1.404433
