21

C      -0.144323    1.537822   -0.013074
C       0.084928    0.031054   -0.047236
O       1.208970   -0.437217   -0.134758
N      -1.045264   -0.726277    0.026635
C      -1.097516   -2.203394    0.013529
C      -0.322920   -2.768057    1.218378
C      -2.580596   -2.585872    0.117493
C      -0.507170   -2.739155   -1.303648
H       0.405213    1.955222    0.834813
H       0.278103    1.975683   -0.921337
H      -1.195022    1.829236    0.066393
H      -1.925466   -0.243497    0.096529
H      -0.753363   -2.405347    2.157442
H      -0.372476   -3.861691    1.219244
H       0.722937   -2.462065    1.172499
H      -3.152354   -2.187203   -0.728113
H      -2.690776   -3.673443    0.113076
H      -3.022739   -2.207541    1.046078
H       0.534760   -2.432548   -1.403275
H      -0.558150   -3.832565   -1.322233
H      -1.068901   -2.355847   -2.161677
