15

N      -0.402072   -1.143342   -0.445452
C      -0.216858   -0.027566   -0.207785
C      -0.002508    1.395246    0.052149
O      -0.167286    1.791502    1.436673
C       1.080828    2.542435    1.405666
C       2.319566    1.807020    1.932645
C       2.258679    0.369137    1.641831
N       2.631524    1.264068    0.524234
C       1.419955    2.011584    0.015193
H      -0.689863    1.960854   -0.591873
H       0.950511    3.591150    1.672500
H       3.091385    2.265638    2.541568
H       3.106126   -0.230876    1.957600
H       1.309063   -0.151620    1.658086
H       1.678164    2.620495   -0.848100
