19

C       0.010779   -1.218609    0.026876
C       0.058108   -0.016249    0.037193
C       0.089282    1.419274    0.052440
C       0.509701    2.239389    1.258690
C       1.630714    1.538707    2.042413
C       2.484547    1.563518    0.754222
C       3.937176    1.926863    0.671546
C       3.466766    0.551949    0.247600
C       1.364795    2.246643   -0.003956
H      -0.025927   -2.279370    0.010421
H      -0.726252    1.884054   -0.497627
H      -0.141573    3.013073    1.646275
H       2.047053    2.168096    2.833096
H       1.380753    0.555656    2.452270
H       4.246783    2.623075   -0.101943
H       4.495149    2.017053    1.598448
H       3.703587   -0.289065    0.890871
H       3.458394    0.314183   -0.810785
H       1.484886    3.021583   -0.752827
