16

N      -0.046599    1.259954    0.168675
C      -0.001816   -0.004122    0.079777
N       1.076039   -0.889467    0.109295
C       0.594354   -2.182360   -0.038023
N      -0.667145   -2.299217   -0.180410
C      -1.210224   -0.935540   -0.085021
C      -2.175757   -0.774353    1.078915
C      -2.896686   -1.910583    1.658043
O      -1.767079   -1.330275    2.323799
H       0.878072    1.674801    0.292211
H       2.034457   -0.634269    0.278356
H       1.291602   -3.014133   -0.044338
H      -1.747915   -0.684750   -1.007543
H      -2.599993    0.227257    1.144723
H      -3.857205   -1.743891    2.143102
H      -2.727138   -2.902482    1.248225
