17

O      -0.052846    1.376815   -0.087712
C       0.019085   -0.037310    0.009804
C       0.598210   -0.498073    1.379612
C      -0.608961   -0.539633    2.314083
C      -1.843300   -0.321423    1.529243
C      -1.434127   -0.543506    0.059308
N      -1.378072   -2.017491   -0.111286
C      -1.413344   -2.506008    1.061505
N      -1.637276   -1.638569    2.174667
H       0.844796    1.723398   -0.100281
H       0.567001   -0.469836   -0.837241
H       1.102637   -1.465260    1.294837
H       1.336366    0.220543    1.749185
H      -0.501407   -0.202397    3.339020
H      -2.693175    0.273801    1.840905
H      -2.064481   -0.073697   -0.695132
H      -1.317457   -3.569027    1.263484
