15

C       0.143431    0.948779    0.364856
O      -0.242966    0.026826   -0.640131
C      -1.412520   -0.651119   -0.335781
C      -1.545690   -2.100543   -0.704564
C      -0.228853   -2.804986   -0.385681
O      -0.227448   -2.296611    0.976864
C      -1.490535   -1.674027    0.762267
H       1.067679    1.420935    0.024022
H      -0.618660    1.728160    0.514201
H       0.325909    0.439153    1.318998
H      -2.332106   -0.073473   -0.462884
H      -2.346281   -2.495467   -1.315268
H      -0.310107   -3.896802   -0.380858
H       0.653560   -2.486630   -0.948078
H      -2.211370   -1.692589    1.572768
