20

C       0.082090    1.513723   -0.002036
C      -0.090613   -0.002644    0.122418
C       0.714962   -0.587658    1.272951
C       0.841801   -2.100549    1.302176
C       2.131287   -1.990973    0.525861
N       2.219204   -0.522664    0.996798
C       2.790740   -1.029250    2.309187
C       2.193107   -2.385907    1.977322
O       2.400655   -3.616380    2.560316
H       1.138459    1.765551   -0.129429
H      -0.473097    1.906672   -0.859024
H      -0.280990    2.029452    0.894211
H      -1.148501   -0.253561    0.275839
H       0.213064   -0.494042   -0.810039
H       0.442554   -0.086374    2.211825
H       0.089192   -2.878286    1.246763
H       2.505356   -2.391449   -0.405178
H       3.884446   -1.023205    2.256180
H       2.459911   -0.480834    3.198533
H       3.331262   -3.846711    2.460672
