23

C      -0.287027    1.519842    0.116196
C       0.275198    0.103919   -0.030939
C       0.664426   -0.508194    1.307282
O       1.174859   -1.809643    1.080921
C       1.596707   -2.461721    2.245888
C       0.505243   -3.144375    3.103661
O       1.037751   -4.450614    2.813354
C       2.102807   -3.903176    1.993845
C       2.081580   -4.430774    0.573915
H       0.444420    2.195238    0.573646
H      -0.558922    1.936842   -0.857556
H      -1.185025    1.530230    0.743759
H      -0.461365   -0.550220   -0.511264
H       1.158287    0.109400   -0.679983
H       1.426329    0.113172    1.809376
H      -0.210560   -0.547564    1.977642
H       2.289475   -1.824575    2.813775
H       0.521260   -2.920684    4.177780
H      -0.514963   -3.016262    2.719593
H       3.077620   -4.100857    2.460577
H       1.140069   -4.184714    0.079470
H       2.901805   -3.998776   -0.008317
H       2.203059   -5.518269    0.588485
