19

C      -0.122736    1.513097    0.087511
C      -0.035343    0.015280    0.004285
C      -0.139190   -0.675995   -1.133692
C      -0.042602   -2.182726   -1.226277
O       0.395283   -2.599522   -2.515318
C       0.846511   -2.775291   -0.117400
C       0.605218   -2.126752    1.239238
O       1.522512   -1.092951    1.621908
C       0.168704   -0.725836    1.284988
H       0.796110    1.932416    0.515782
H      -0.280053    1.962093   -0.896518
H      -0.945278    1.827814    0.742397
H      -0.316242   -0.166512   -2.078816
H      -1.052537   -2.608074   -1.144381
H       1.272865   -2.225790   -2.655905
H       0.696154   -3.857441   -0.066852
H       1.895407   -2.603723   -0.386567
H       0.324671   -2.786784    2.059262
H      -0.410043   -0.373809    2.140053
