17

N       0.055011   -1.123101   -0.075134
C       0.040969    0.033062   -0.029323
C       0.023014    1.471099    0.021873
C      -0.441453    2.262682    1.281546
C       0.364938    3.387119    0.636952
C       1.361041    2.361829    0.030831
C       1.339558    3.210343   -1.230982
N      -0.077785    3.592160   -0.849596
C      -0.745718    2.278861   -1.062486
H      -1.516561    2.366955    1.446442
H       0.054294    1.919610    2.192888
H       0.643105    4.314794    1.130662
H       2.234214    1.952061    0.537264
H       1.994886    4.081988   -1.149935
H       1.446866    2.755939   -2.220047
H      -0.597660    1.925713   -2.084273
H      -1.815978    2.329402   -0.852402
