16

O       0.030736    1.395305   -0.005438
C       0.018213    0.004918   -0.008474
C       1.010786   -0.490070   -1.030005
O       1.663033    0.289387   -1.690353
C      -0.043245   -0.709288    1.398249
C      -1.482639   -0.118798    1.524727
C      -1.394837   -0.694760    0.076619
C      -0.702586   -1.935015    0.707039
H       0.686275    1.647664   -0.675842
H       1.131762   -1.577732   -1.165024
H       0.746028   -0.709532    2.151041
H      -2.153409   -0.649806    2.204851
H      -1.565921    0.961176    1.621764
H      -2.164966   -0.678195   -0.695568
H      -0.093355   -2.583076    0.076891
H      -1.343901   -2.534042    1.356333
