16

O       0.127329    1.330748   -0.410875
C       0.024607    0.134499    0.331109
C      -1.368691   -0.469891    0.201188
N      -1.641127   -0.965212   -1.168306
C      -1.548639   -1.948788   -0.069556
C      -0.455198   -2.880401   -0.079194
C       0.436428   -3.686568   -0.060757
C      -2.430991    0.198965    0.904899
C      -3.318247    0.762294    1.489531
H      -0.072703    1.097773   -1.325458
H       0.760729   -0.613388    0.009450
H       0.225246    0.390627    1.374935
H      -2.619874   -0.813698   -1.401154
H      -2.485491   -2.359600    0.299114
H       1.229510   -4.392999   -0.050981
H      -4.096079    1.266799    2.007707
