23

C       0.105765    1.377959    0.151790
O       0.047960   -0.026771    0.150950
C      -1.244280   -0.526336   -0.125121
C      -1.180274   -2.044942   -0.068660
C      -1.019152   -2.597776    1.377590
C      -2.539583   -2.913049    1.404222
C      -2.556225   -2.784109   -0.143342
C      -3.749154   -2.136017   -0.818697
O      -4.857700   -3.009550   -0.644678
H       1.135605    1.664683    0.379197
H      -0.171947    1.801227   -0.827190
H      -0.560664    1.815840    0.912591
H      -1.965581   -0.131170    0.611632
H      -1.580213   -0.183992   -1.119797
H      -0.429932   -2.376835   -0.791886
H      -0.408233   -3.503741    1.403837
H      -0.628915   -1.896615    2.118473
H      -2.855274   -3.867807    1.828750
H      -3.120462   -2.118326    1.882932
H      -2.411406   -3.769961   -0.597559
H      -3.954332   -1.149654   -0.372433
H      -3.534856   -1.973783   -1.888481
H      -5.632238   -2.594487   -1.035174
