18

C       0.120497    1.500995    0.149520
C       0.011227   -0.005927    0.032066
O       0.731856   -0.579492    1.141295
C       0.731583   -1.901802    1.185008
N       0.183475   -2.755375    0.382352
C       0.530476   -3.985873    0.949768
C       1.269254   -3.797224    2.064263
C       1.915910   -4.671221    3.071071
O       1.406943   -2.423745    2.226658
H       1.165631    1.820269    0.111917
H      -0.416200    1.974280   -0.677810
H      -0.314222    1.851332    1.089701
H      -1.027826   -0.349188    0.072729
H       0.445957   -0.380122   -0.900731
H       0.216750   -4.917766    0.506100
H       3.000850   -4.518333    3.104915
H       1.526716   -4.487479    4.079207
H       1.727325   -5.717475    2.818886
