20

C       0.036128    1.559878   -0.061668
C      -0.005373    0.023550    0.030992
C      -1.362765   -0.513236    0.049612
C      -2.495774   -0.924433    0.072272
C      -3.872158   -1.446624    0.058071
C      -3.850774   -2.985053   -0.018185
C      -4.647861   -0.970472    1.293458
O      -4.592282   -0.915270   -1.063686
H       1.071366    1.913783   -0.072363
H      -0.456996    1.907384   -0.973476
H      -0.475719    2.013843    0.791055
H       0.547715   -0.410204   -0.812186
H       0.524061   -0.303529    0.935240
H      -3.346679   -3.416313    0.851557
H      -4.877033   -3.361022   -0.060778
H      -3.318966   -3.316235   -0.915519
H      -4.665275    0.120872    1.326323
H      -5.677281   -1.336218    1.238102
H      -4.183992   -1.345602    2.208822
H      -4.046541   -1.051403   -1.845619
