16

O      -0.238412    0.019829   -0.025340
C      -0.142187    1.202101    0.050727
N      -1.180694    2.222686   -0.042608
C      -0.999176    3.070194    1.174470
C      -0.065299    3.278804    0.062479
C       1.035186    2.219840    0.085083
C       2.227507    2.148302    1.056505
C       3.071697    2.008611   -0.225371
O       1.894322    2.167227   -1.056240
H      -1.814468    3.773004    1.309686
H      -0.656372    2.598027    2.092649
H      -0.071392    4.140560   -0.592313
H       2.394692    3.061514    1.630006
H       2.229089    1.286708    1.725115
H       3.807057    2.796752   -0.417627
H       3.538810    1.029739   -0.373927
