17

C      -0.166609   -1.269584   -0.198851
C      -0.088113   -0.079646   -0.047829
C      -0.005695    1.352942    0.127847
C       0.325417    1.939172    1.526366
O       1.326581    2.811135    0.960212
C       1.286359    2.126177   -0.303821
C       2.521103    1.296802   -0.552079
C       3.789142    1.628175    0.108941
O       2.993292    0.520639    0.544494
H      -0.224103   -2.322639   -0.322952
H      -0.891107    1.835225   -0.295636
H      -0.474935    2.498939    2.019850
H       0.764239    1.210523    2.214341
H       1.143023    2.822859   -1.139998
H       2.542118    0.787431   -1.516813
H       4.729652    1.365872   -0.372517
H       3.814401    2.470336    0.795454
