21

C      -0.017322    1.584667   -0.043655
C       0.051580    0.058832   -0.018840
C       0.778667   -0.583007   -1.215728
C       1.221293   -1.967406   -0.724451
O       1.479236   -2.914341   -1.423307
C       1.276676   -1.953624    0.803895
C       2.685224   -1.590964    1.369905
C       2.227487   -0.113211    1.516306
C       0.756775   -0.546079    1.215447
H       0.983615    2.030059   -0.052166
H      -0.544545    1.942727   -0.933927
H      -0.546536    1.969949    0.834652
H      -0.976722   -0.330177   -0.012991
H       0.182215   -0.663009   -2.127369
H       1.683988   -0.016178   -1.477169
H       0.809907   -2.855404    1.204987
H       2.867223   -2.075308    2.331778
H       3.538668   -1.792734    0.717626
H       2.399393    0.348280    2.490787
H       2.652897    0.546362    0.755029
H       0.120646   -0.518167    2.102824
