20

C       0.177202    1.525795   -0.369081
C       0.068850    0.025253   -0.080050
C      -1.370149   -0.373330    0.254438
C       0.671687   -0.839376   -1.218168
C       2.096241   -1.136054   -0.748057
O       2.922705   -0.049702   -1.151413
C       1.891693   -1.201857    0.768416
O       0.894924   -0.248857    1.079720
H       1.206289    1.780335   -0.629664
H      -0.478618    1.812694   -1.198143
H      -0.116572    2.098517    0.515699
H      -2.030620   -0.205601   -0.603203
H      -1.425174   -1.431402    0.528838
H      -1.744573    0.217459    1.095631
H       0.118389   -1.777659   -1.323849
H       0.671162   -0.330006   -2.183658
H       2.482549   -2.084371   -1.148269
H       3.765227   -0.125783   -0.692543
H       1.580935   -2.219777    1.060072
H       2.802045   -0.957829    1.330822
