16

C       0.003284    1.534088    0.009666
C       0.003365    0.031941   -0.012639
C      -0.034859   -0.671456   -1.173246
C      -0.010992   -2.117990   -1.226171
O      -0.036395   -2.815646   -2.206902
O       0.052485   -2.744455    0.023089
C       0.061560   -2.044936    1.175814
C       0.054671   -0.693780    1.238132
N       0.187100    0.017524    2.450423
H       0.847939    1.909079    0.596959
H       0.058944    1.943986   -1.000314
H      -0.908617    1.924350    0.480192
H      -0.074424   -0.173852   -2.134790
H       0.097800   -2.693571    2.044024
H       0.156364   -0.590441    3.259726
H      -0.511348    0.743462    2.561726
