20

C       0.089104    1.524357    0.155603
C      -0.052163    0.035695   -0.010611
C      -1.234972   -0.571284    0.153677
C      -1.522513   -2.020678    0.054441
N      -0.772249   -2.852145   -0.902235
C      -0.553054   -3.087114    0.536431
C       0.757390   -2.739282    1.129695
C       1.543948   -1.724010    0.761899
C       1.228291   -0.726721   -0.335626
H       0.811078    1.765274    0.946942
H       0.473072    1.987634   -0.763049
H      -0.862836    2.000924    0.405565
H      -2.090893    0.041135    0.429842
H      -2.572265   -2.271184    0.191477
H      -1.377561   -3.574950   -1.280051
H      -1.020956   -3.972473    0.960863
H       1.063264   -3.358761    1.969322
H       2.466300   -1.566219    1.315201
H       1.125089   -1.239106   -1.295088
H       2.055899   -0.018215   -0.432096
