21

C      -0.215658    1.526416    0.131158
C      -0.004475    0.031494    0.019536
C       0.678940   -0.633984   -1.175623
C       1.307910    0.187933   -2.298717
C       2.744406    0.592818   -1.955181
O       2.831583    1.131606   -0.643597
C       2.628597    0.139562    0.347890
C       1.333294   -0.645091    0.180454
O       1.365309   -1.893101    0.828058
H       0.656148    2.086080   -0.211770
H      -1.082761    1.843651   -0.459836
H      -0.407916    1.813464    1.171207
H      -0.822608   -0.565282    0.416532
H       0.244733   -1.583761   -1.469298
H       1.314109   -0.395089   -3.225595
H       0.713972    1.086941   -2.499568
H       3.415379   -0.277513   -2.043159
H       3.110249    1.372167   -2.630040
H       3.451465   -0.593879    0.330880
H       2.661481    0.663503    1.310542
H       1.203332   -1.743694    1.766237
