16

C       0.075011    1.523234    0.050306
C      -0.024886    0.026678   -0.020007
C      -0.045976   -0.650239   -1.178025
C      -0.143064   -2.112338   -1.253160
O      -0.161290   -2.717560   -2.301249
C      -0.224255   -2.889489    0.077168
O      -0.306572   -4.097003    0.112914
N      -0.196521   -2.116594    1.206733
C      -0.101012   -0.677748    1.300883
H       0.966430    1.832159    0.609840
H       0.125369    1.964515   -0.946705
H      -0.788598    1.951145    0.573945
H       0.009262   -0.134509   -2.132574
H      -0.250648   -2.642748    2.067974
H       0.783493   -0.396583    1.894950
H      -0.964199   -0.278145    1.857275
