18

C       0.231774    1.443082   -0.012504
C       0.018677   -0.056791    0.047904
C      -1.423378   -0.473379   -0.208281
O       0.906355   -0.769226   -0.890617
C       1.448093   -1.589526    0.152594
C       2.694582   -0.986672    0.817543
O       1.870563   -0.230712    1.746065
C       0.665544   -0.823296    1.233309
H       1.251180    1.698421    0.281721
H       0.053429    1.801843   -1.031083
H      -0.461772    1.959864    0.659026
H      -1.725524   -0.178186   -1.217674
H      -1.539166   -1.558703   -0.125216
H      -2.099206    0.002869    0.510087
H       1.416399   -2.657486   -0.070077
H       3.330087   -1.703595    1.352749
H       3.304718   -0.347508    0.171124
H       0.018286   -1.224915    2.015814
