25

C      -0.029420    1.398243    0.060119
O      -0.004362   -0.006159    0.007241
C       0.674694   -0.587839    1.099916
C       0.679632   -2.109254    0.941345
C       1.406372   -2.517966   -0.346739
C       1.275277   -2.760079    2.202475
C       1.165588   -4.287728    2.240565
C       1.673803   -4.878798    3.549179
O       1.545557   -6.290902    3.472213
H       0.985374    1.827724    0.045074
H      -0.574452    1.751290   -0.818992
H      -0.540247    1.765388    0.965058
H       1.711542   -0.207448    1.151378
H       0.180531   -0.304671    2.045634
H      -0.371473   -2.419263    0.858814
H       1.305316   -3.587808   -0.548125
H       0.998783   -1.970178   -1.199162
H       2.477503   -2.289346   -0.278185
H       2.331344   -2.467067    2.293865
H       0.768254   -2.346701    3.085731
H       0.121044   -4.594189    2.103759
H       1.734327   -4.740473    1.421341
H       2.724262   -4.582499    3.707427
H       1.092324   -4.471361    4.392983
H       1.863588   -6.667254    4.297819
