15

C      -0.054655    1.349681   -0.054058
O       0.040720   -0.077901    0.058851
C       0.673695   -0.540052    1.123107
N       1.189063    0.212230    2.028589
C       1.811005   -0.461971    3.066232
C       1.888137   -1.805139    3.150901
C       1.299069   -2.621823    2.117156
N       1.296762   -3.885145    2.069051
O       0.677110   -1.878405    1.082065
H       0.940901    1.796410   -0.099276
H      -0.601271    1.526632   -0.979810
H      -0.593046    1.765098    0.800513
H       2.244938    0.176358    3.828968
H       2.377472   -2.315767    3.968017
H       0.815559   -4.223365    1.236178
