20

C      -0.198990    1.584937    0.074298
C      -0.022486    0.068058    0.042063
C       0.651832   -0.408600   -1.267754
C       1.314442   -1.794953   -1.159919
C       2.700023   -1.808636   -0.496342
O       3.562635   -2.564851   -0.898455
C       3.005444   -0.820421    0.570183
C       2.092957   -0.139514    1.275850
N       0.692198   -0.405632    1.252902
H       0.772806    2.090466    0.063602
H      -0.758526    1.925322   -0.802566
H      -0.736574    1.893671    0.974458
H      -1.012734   -0.399135    0.107440
H      -0.102067   -0.428950   -2.062610
H       1.406146    0.321970   -1.582669
H       0.658862   -2.491714   -0.617558
H       1.462916   -2.236936   -2.148863
H       4.065347   -0.648714    0.735643
H       2.406242    0.654507    1.952244
H       0.561116   -1.409690    1.306407
