20

C      -0.130253    1.444790   -0.174627
C       0.114185   -0.048774   -0.021484
O       0.827624   -0.500693    0.856820
N      -0.529189   -0.836478   -0.933662
C      -0.363958   -2.274449   -0.988320
C       0.154495   -2.697955   -2.353039
C      -0.020751   -4.176112   -2.760936
C      -0.920925   -3.615291   -3.880299
O      -0.743391   -2.260806   -3.408336
H       0.828600    1.941149   -0.346965
H      -0.814100    1.698527   -0.988630
H      -0.533142    1.832401    0.764586
H      -1.061549   -0.414722   -1.677514
H       0.339535   -2.548226   -0.197578
H      -1.321140   -2.776684   -0.791839
H       1.160322   -2.288393   -2.512613
H       0.884817   -4.687149   -3.088558
H      -0.532851   -4.792338   -2.018825
H      -0.537692   -3.741554   -4.900019
H      -1.972902   -3.922801   -3.857721
