15

C       0.040972    1.473836   -0.016273
C       1.282749    0.662877    0.042008
C       1.953138    0.365345    1.405926
C       0.825807   -0.373815    2.054780
C      -0.234685   -0.548371    1.233859
C      -1.161020   -1.266716    2.025065
N      -0.673549   -1.493999    3.229848
O       0.614969   -0.916212    3.252117
N      -0.064214   -0.006108   -0.072929
H      -0.304668    1.958937    0.893047
H      -0.217015    1.982611   -0.940215
H       1.903817    0.597984   -0.844621
H       2.847253   -0.255413    1.277449
H       2.256985    1.271273    1.941263
H      -2.150675   -1.632869    1.793179
