17

O       0.192807    1.421314   -0.166119
C       0.098148    0.032483   -0.092586
C       0.747904   -0.616319   -1.324258
C       0.029866   -1.965363   -1.515457
C      -1.421464   -1.688993   -1.064105
C      -1.263621   -0.719775    0.092420
O      -0.711939   -1.376885    1.293659
C       0.448377   -0.648668    1.245145
O       1.324429   -0.611915    2.049384
H       0.054669    1.798612    0.709390
H       0.547820    0.056984   -2.165679
H       1.831688   -0.704117   -1.219089
H       0.090611   -2.328654   -2.543553
H       0.478888   -2.730132   -0.873967
H      -1.982815   -1.185949   -1.860849
H      -1.974307   -2.589721   -0.784623
H      -2.138703   -0.128059    0.363532
