19

C       0.033727    1.615516   -0.001420
C       0.003978    0.085493   -0.027961
N       0.741351   -0.473647   -1.153088
C       1.874052   -1.184747   -0.840850
O       2.676752   -1.632643   -1.630332
C       1.909889   -1.291982    0.669540
C       0.728117   -0.522374    1.179557
N       0.792391   -1.957893    1.339100
C      -0.108679   -2.868120    0.642985
H       1.062744    1.981035    0.069610
H      -0.414424    2.030435   -0.909581
H      -0.532104    1.994047    0.856226
H      -1.042443   -0.251355   -0.057618
H       0.480795   -0.324493   -2.115825
H       2.880775   -1.359525    1.148219
H       0.749439    0.064533    2.093861
H      -0.371601   -2.578590   -0.383201
H       0.360370   -3.855355    0.609692
H      -1.029469   -2.950487    1.228850
