12

O      -0.476637    0.426611    0.658364
C       0.100454    0.889272   -0.285631
C       1.285141    1.853422   -0.155261
C       1.232619    2.959596   -1.148369
C       1.018785    4.300566   -1.046498
N       1.054470    4.809668   -2.322170
N       1.262269    3.905134   -3.163890
O       1.387415    2.659242   -2.437804
H      -0.173535    0.634407   -1.331270
H       1.312487    2.240694    0.864681
H       2.194540    1.259468   -0.322095
H       0.850589    4.920986   -0.183330
