13

C      -0.088686    1.551957    0.007298
C       0.098668    0.047717    0.025170
C       0.854273   -0.536490   -1.180711
O       1.706093   -1.524536   -0.599734
C       1.798979   -1.315506    0.740844
O       2.529633   -1.906713    1.468167
O       0.940074   -0.338023    1.126494
H       0.876331    2.058688   -0.085492
H      -0.719298    1.841066   -0.839789
H      -0.573491    1.891130    0.925867
H      -0.866298   -0.456886    0.158083
H       0.200985   -1.015856   -1.912008
H       1.469635    0.218655   -1.684085
