18

C      -0.005298    1.499839    0.001653
C       0.154310   -0.008045    0.065676
O       0.535322   -0.469287   -1.228056
C       0.687261   -1.866231   -1.332521
C       0.783787   -2.207773   -2.823125
N      -0.482219   -1.860841   -3.459212
C       1.886922   -2.334652   -0.601195
N       2.822635   -2.695109   -0.026869
H       0.935800    1.973580   -0.290591
H      -0.772873    1.777289   -0.726425
H      -0.299731    1.888228    0.980847
H       0.921207   -0.288323    0.802285
H      -0.788447   -0.491831    0.365559
H      -0.190678   -2.382313   -0.913602
H       1.669529   -1.693071   -3.228810
H       0.953517   -3.284831   -2.921057
H      -0.609171   -0.854971   -3.406997
H      -0.453983   -2.105918   -4.443253
