19

O      -0.107803    1.154851    0.826849
C      -0.030849   -0.160301    0.317534
C      -1.373143   -0.600076   -0.237410
C      -1.623886   -2.104624   -0.466014
C      -2.755061   -1.934978    0.571165
C      -2.701285   -2.779084    1.842300
C      -3.685546   -2.293079    2.887431
O      -4.526079   -2.983879    3.403871
O      -2.385841   -0.552056    0.806759
H      -0.849732    1.160902    1.443870
H       0.724384   -0.157313   -0.476900
H       0.295345   -0.876597    1.090230
H      -1.661618    0.048800   -1.073640
H      -1.933099   -2.397487   -1.469294
H      -0.806325   -2.750636   -0.135481
H      -3.760056   -1.987571    0.131711
H      -2.915683   -3.828257    1.615823
H      -1.690161   -2.706216    2.265494
H      -3.578131   -1.218852    3.152079
