21

C      -0.037212    1.483664   -0.399591
C       0.005058    0.012123   -0.047551
C       1.293153   -0.736521    0.014127
N       0.513249   -0.498352    1.227939
C       1.063673    0.429890    2.209423
C       1.866863   -0.349122    3.252035
C       2.526213    0.574024    4.271628
N       2.768196    0.004575    5.488988
O       2.828240    1.726702    4.024498
H       0.882184    2.006763   -0.127424
H      -0.179036    1.601453   -1.479204
H      -0.873860    1.986173    0.098638
H      -0.872583   -0.538396   -0.385906
H       1.363431   -1.768744   -0.319893
H       2.203593   -0.152530   -0.124670
H       1.713414    1.205776    1.783307
H       0.229938    0.945619    2.699667
H       1.228664   -1.091265    3.743305
H       2.664092   -0.911506    2.747369
H       2.548817   -0.955126    5.687923
H       3.262124    0.545431    6.179704
