12

N      -0.120001    1.315514   -0.009150
C       0.054445   -0.032106   -0.012896
O       1.135460   -0.589115   -0.023180
C      -1.206930   -0.820886   -0.003338
C      -1.411817   -2.165213   -0.004020
C      -2.825291   -2.278556    0.008046
N      -3.420235   -1.108531    0.015879
O      -2.390802   -0.175695    0.009119
H       0.696604    1.903237   -0.012550
H      -1.035777    1.730799    0.002626
H      -0.662036   -2.936982   -0.012265
H      -3.433818   -3.171686    0.011413
