21

C      -0.156243    1.520206    0.145385
C       0.006992    0.017496    0.001892
C      -1.076430   -0.756715    0.737964
C       0.544622   -0.628630   -1.240152
C       1.275721    0.226009   -2.283373
C       2.522723    0.814057   -1.585482
C       2.611829    0.148014   -0.200843
O       3.561177    0.222867    0.540793
C       1.381289   -0.668037    0.033428
H       0.592616    2.098771   -0.396516
H      -1.140771    1.827280   -0.226863
H      -0.099100    1.812103    1.199737
H      -2.068219   -0.487261    0.356368
H      -0.952971   -1.837073    0.619411
H      -1.059883   -0.531351    1.810105
H       0.048819   -1.527683   -1.591609
H       1.575984   -0.414800   -3.117207
H       0.625731    1.001334   -2.701724
H       3.449193    0.599469   -2.125628
H       2.489995    1.901431   -1.462884
H       1.487799   -1.542087    0.665113
