17

C       0.122406    1.353823   -0.489049
C      -0.101866    0.068271    0.328906
C      -1.488963   -0.475721    0.224725
N      -2.449284   -0.339713    1.120811
C      -3.551868   -0.952070    0.595572
O      -4.748458   -1.023511    1.244111
C      -3.274995   -1.471701   -0.636804
O      -3.983356   -2.167517   -1.565041
N      -1.951678   -1.161908   -0.868695
H       1.146914    1.718858   -0.366115
H      -0.046747    1.182177   -1.557240
H      -0.564643    2.140577   -0.164810
H       0.624539   -0.694042    0.017708
H       0.082630    0.267458    1.387951
H      -4.625305   -0.571657    2.086526
H      -4.870779   -2.295204   -1.213019
H      -1.438149   -1.414891   -1.696181
