20

C       0.265937   -0.984935    1.905768
C       0.061946   -0.461263    0.478307
C      -1.342246   -0.680349   -0.067385
C      -2.461931    0.071783    0.652332
C      -2.336099    1.525725    0.524307
N      -2.223836    2.670786    0.416210
C      -1.508335   -0.882192   -1.563077
C      -1.704081   -2.037853   -0.610310
O      -0.735562   -3.039305   -0.511101
H       1.299551   -0.824418    2.226613
H      -0.377025   -0.475553    2.631526
H       0.057798   -2.057426    1.955833
H       0.292544    0.610300    0.433209
H       0.769880   -0.964405   -0.185035
H      -3.437958   -0.220786    0.249777
H      -2.475899   -0.181007    1.718591
H      -2.376530   -0.463586   -2.061783
H      -0.600750   -0.881488   -2.157277
H      -2.726384   -2.383075   -0.448014
H      -0.756474   -3.558797   -1.321506
