18

C       0.138014    1.520303    0.105486
C      -0.184670    0.033633   -0.081881
C       0.591782   -0.576081   -1.230725
O       2.044224   -0.535688   -1.063461
C       2.151719   -1.918382   -1.356793
C       1.469932   -2.753891   -0.334144
C       0.633870   -2.103002   -1.433745
C      -0.178015   -2.835664   -2.340951
N      -0.851317   -3.418183   -3.081581
H       1.204108    1.660309    0.304429
H      -0.116250    2.097152   -0.790120
H      -0.424810    1.938484    0.944459
H       0.030638   -0.516111    0.840562
H      -1.253043   -0.102807   -0.292710
H       0.340142   -0.081966   -2.177116
H       2.936701   -2.247228   -2.027229
H       1.579471   -3.826612   -0.453560
H       1.390041   -2.401071    0.688860
