18

C       0.065745    1.327586   -0.084882
O      -0.298929   -0.001667    0.233414
C       0.544777   -0.604662    1.153059
C       0.131273   -1.997007    1.603843
N       0.243019   -2.896342    0.431404
C       1.449185   -2.571996    1.212495
C       1.958923   -1.217974    0.683743
C       2.339476   -1.131398   -0.709449
C       2.676989   -1.044704   -1.860513
H       1.054895    1.374944   -0.557561
H      -0.681374    1.704215   -0.786825
H       0.068279    1.968047    0.811523
H       0.725323    0.052091    2.018043
H      -0.518967   -2.242023    2.434095
H      -0.076892   -3.815478    0.735419
H       2.041645   -3.338241    1.695514
H       2.753216   -0.817825    1.321202
H       2.958246   -0.983302   -2.882368
