19

C      -0.628129    1.224149    0.476248
C       0.181736    0.045574   -0.001142
O       1.435851    0.318081   -0.637095
C       1.447828   -0.398922    0.607649
C       2.108998    0.287975    1.757448
C       2.049547   -0.186362    3.204880
C       2.165505   -1.705715    3.268388
O       3.340643   -1.691049    2.411096
C       3.339605   -0.259910    2.420016
H      -0.015972    1.943930    1.023269
H      -1.081615    1.741869   -0.375467
H      -1.438133    0.887268    1.132433
H      -0.404046   -0.720086   -0.515730
H       1.717435   -1.449560    0.506061
H       2.119432    1.371742    1.685293
H       1.750240    0.460079    4.018597
H       2.430915   -2.074491    4.265220
H       1.350330   -2.310888    2.855898
H       4.294334    0.246184    2.504578
