16

C      -0.039177    1.528237    0.038532
C       0.006566    0.026548   -0.016166
C       0.023281   -0.689893   -1.203761
C       0.064224   -2.095769   -1.173693
N       0.138872   -2.834656   -2.345549
N       0.085754   -2.790301   -0.032671
C       0.078071   -2.104444    1.114325
C       0.038273   -0.725473    1.160413
F       0.025267   -0.091145    2.345277
H       0.831043    1.927051    0.570181
H      -0.059041    1.959113   -0.964771
H      -0.924385    1.873782    0.582649
H       0.011664   -0.164942   -2.154042
H      -0.293899   -2.425927   -3.159392
H      -0.091168   -3.808731   -2.212057
H       0.098666   -2.674195    2.039673
