23

C      -0.193634    1.468471    0.122077
C       0.000133   -0.039341   -0.012606
C       0.721586   -0.406396   -1.316384
C       0.767001   -1.908802   -1.638917
C       1.562457   -2.765453   -0.683189
C       1.506768   -2.735985    0.647676
C       0.630768   -1.828366    1.491340
C       0.996524   -1.918626    2.970692
O       0.720037   -0.452326    1.140063
H       0.775278    1.977989    0.119522
H      -0.792811    1.860358   -0.705263
H      -0.698288    1.702704    1.062933
H      -0.990627   -0.529587   -0.008432
H       0.214969    0.107760   -2.142756
H       1.741635   -0.007768   -1.264434
H      -0.265024   -2.289725   -1.691436
H       1.174519   -2.034971   -2.647657
H       2.233568   -3.487588   -1.143971
H       2.130003   -3.432580    1.205064
H      -0.420927   -2.147372    1.369430
H       2.027936   -1.586320    3.124879
H       0.336576   -1.282251    3.564671
H       0.907964   -2.949453    3.327017
