20

C       0.190511    1.492853    0.015592
C       0.065373   -0.001644   -0.016925
C      -1.232215   -0.730604    0.407194
C      -0.289533   -1.824058    0.869668
N       0.869942   -0.876284    1.016645
C       0.853595   -1.906577   -0.090181
C       1.883903   -2.995448   -0.074979
O       3.189823   -2.475175   -0.262378
C       0.645938   -0.854472   -1.166535
H       1.226699    1.802437   -0.154067
H      -0.431364    1.945777   -0.765582
H      -0.130960    1.893306    0.982346
H      -1.706222   -0.235227    1.259223
H      -1.981506   -0.950987   -0.360463
H      -0.474225   -2.595820    1.609041
H       1.806475   -3.558454    0.868940
H       1.711474   -3.701312   -0.895336
H       3.291553   -1.777461    0.396525
H       0.005154   -1.078163   -2.026322
H       1.610033   -0.469286   -1.508480
