17

O      -0.028702    0.074683   -0.485079
C       0.002821    1.205789   -0.064878
C      -1.269564    1.912741    0.438002
N      -1.112673    3.343688    0.761561
C       0.268182    3.816525    0.695137
C       0.987192    3.415885   -0.630488
C       1.258556    2.037222    0.057299
C       1.197503    2.807754    1.414346
H      -2.054362    1.756652   -0.308162
H      -1.590546    1.353498    1.328769
H      -1.678743    3.896790    0.128661
H       0.297219    4.864350    1.002101
H       0.403055    3.429621   -1.555526
H       1.921705    3.962976   -0.782381
H       2.141460    1.457267   -0.211207
H       2.166010    3.252583    1.651513
H       0.805276    2.292639    2.294712
