19

O      -2.938091    0.277991    1.558476
C      -1.432574    0.174189    1.403956
C      -1.043700   -0.597054    0.217973
N      -0.790569    0.083421   -0.899347
O      -0.730814   -0.627669   -1.963492
C      -1.311040   -2.071461    0.053729
C      -2.005248   -2.740626    1.263567
N      -3.332820   -2.277928    0.687687
H      -4.160430   -2.852917    0.829929
H      -3.462185   -1.283536    1.025174
C      -2.659359   -2.245924   -0.700465
H      -3.206274    0.865126    0.839682
H      -1.044765    1.191562    1.315258
H      -1.138016   -0.242724    2.371958
H      -0.475052   -2.603825   -0.399599
H      -1.973449   -3.832165    1.236366
H      -1.834177   -2.378785    2.276820
H      -2.987318   -1.428403   -1.334240
H      -2.814950   -3.219380   -1.172125
