13

O      -0.064809    0.023307   -0.121817
C      -0.099450    1.204262    0.028089
C      -1.155445    2.253111   -0.040237
C      -0.991369    3.218890    1.132019
C      -0.057304    3.349467   -0.011676
C       1.058025    2.292648    0.102005
C       1.929155    2.332937    1.261520
N       2.594861    2.358326    2.206895
H      -2.079511    2.193624   -0.600107
H      -1.783159    3.957592    1.191596
H      -0.638072    2.861151    2.094007
H       0.001733    4.222339   -0.646463
H       1.650030    2.198428   -0.813696
