27

C      -0.595762    0.567369   -2.787826
C      -0.346963   -0.295708   -1.541234
C      -1.613035   -0.729629   -0.801715
C      -2.390214    0.459135   -0.251563
C      -2.415345   -1.926972   -1.296541
C      -2.110720   -2.701258   -2.563441
C      -1.608215   -2.045853   -0.012855
C      -0.358978   -2.915870    0.027736
C      -2.370471   -2.148252    1.301507
H       0.349970    0.797644   -3.289061
H      -1.237707    0.049116   -3.507534
H      -1.074013    1.519972   -2.542580
H       0.242786   -1.163786   -1.841796
H       0.289142    0.263993   -0.841075
H      -2.672925    1.147581   -1.054632
H      -3.313608    0.162990    0.248585
H      -1.788511    1.026865    0.469355
H      -3.487267   -1.831347   -1.126579
H      -1.043070   -2.751152   -2.789101
H      -2.476589   -3.731945   -2.488197
H      -2.604018   -2.242865   -3.428006
H       0.172107   -2.977642   -0.922312
H       0.349433   -2.545581    0.778713
H      -0.625820   -3.940460    0.313253
H      -2.582734   -3.199594    1.530584
H      -1.784073   -1.746113    2.137114
H      -3.327420   -1.623927    1.284145
