13

N       0.098990    1.445447    0.227980
C       0.027405    0.055926    0.079001
C      -1.102381   -0.686357    0.044824
O      -1.096653   -2.029095   -0.012043
C       0.114248   -2.759779   -0.045347
O       0.029269   -3.951912   -0.081642
N       1.276617   -2.025508   -0.039493
C       1.230627   -0.733372    0.021337
O       2.376115   -0.042181    0.015783
H       0.931849    1.839444   -0.188232
H      -0.727291    1.935058   -0.087987
H      -2.105636   -0.275782    0.067127
H       3.091660   -0.694781   -0.037556
