16

O       0.078211   -0.005737   -0.170852
C       0.036651    1.184466   -0.069940
C      -1.109460    2.201011    0.120095
C      -1.656150    2.837041   -1.194541
O      -0.735317    3.959065   -1.106673
C      -0.087511    3.364137   -0.007030
C       0.642239    4.033111    1.144834
N       1.416945    2.765289    1.293078
C       1.083283    2.321886   -0.100349
H      -1.822170    2.065346    0.932171
H      -1.512737    2.257310   -2.112353
H      -2.694006    3.175080   -1.130614
H       1.241926    4.886226    0.797975
H       0.063587    4.328860    2.025569
H       2.409955    2.884900    1.448995
H       1.893353    2.329287   -0.833499
