19

C      -0.102426    1.151014   -1.369611
O      -0.124457   -0.045967   -0.612066
C       1.058883   -0.837556   -0.707977
C       1.805186   -0.867779    0.615952
C       0.548994   -2.214621   -1.135530
O       0.684319   -3.226898   -0.491806
C      -0.189781   -2.250422   -2.495729
C      -1.167486   -3.380273   -2.688910
O       0.081952   -1.429593   -3.342530
H       0.740241    1.795269   -1.079300
H      -0.041210    0.941097   -2.444426
H      -1.035908    1.677328   -1.155575
H       1.701172   -0.458694   -1.513511
H       1.165300   -1.274773    1.402254
H       2.697265   -1.495981    0.542528
H       2.110107    0.144133    0.895768
H      -2.028018   -3.228246   -2.026155
H      -1.503117   -3.412007   -3.725640
H      -0.709968   -4.327009   -2.390486
