21

C      -0.028210    1.573460   -0.001256
C       0.049083    0.045288    0.018198
C       0.802548   -0.554619   -1.191166
C       1.313269   -1.945430   -0.715222
C       2.474820   -2.428452   -1.452852
C       3.436614   -2.816086   -2.061877
C       1.534298   -1.767738    0.791992
C       2.270999   -0.534659    1.246198
C       0.759955   -0.548766    1.231816
H       0.973541    2.015598    0.031243
H      -0.526552    1.934883   -0.907224
H      -0.587922    1.952753    0.860160
H      -0.975841   -0.352060    0.018009
H       0.175663   -0.635431   -2.082482
H       1.654844    0.075762   -1.462226
H       0.500243   -2.673809   -0.840890
H       4.285454   -3.163423   -2.596542
H       1.590998   -2.663620    1.399492
H       2.754568   -0.583999    2.215515
H       2.814838    0.058834    0.518563
H       0.240337   -0.533313    2.184367
