15

N      -0.096493    1.172617   -0.543169
C      -0.060750   -0.052318   -0.272956
N       0.963157   -1.023078   -0.086307
C       0.036419   -2.147016    0.163101
C      -1.102268   -1.113060    0.012471
C      -2.402907   -1.001075    0.671238
O      -2.278801   -1.319871   -0.722950
C       2.324812   -0.911599   -0.113085
O       2.909299    0.125329   -0.335055
H       0.845318    1.549327   -0.661630
H       0.046612   -2.911216   -0.618645
H       0.144644   -2.604936    1.149768
H      -2.753741   -1.812665    1.306405
H      -2.798924   -0.011237    0.887126
H       2.834302   -1.873225    0.089588
