22

C       0.053759    1.446796    0.028360
C      -0.051308   -0.076590   -0.122794
C      -1.462073   -0.561870    0.030129
C      -2.111107   -0.921801    1.337622
C      -2.064079   -1.936354    0.221097
C      -3.016997   -1.596408   -0.944913
C      -3.207555   -2.546358   -2.089491
C      -3.812848   -0.369573   -0.736882
N      -2.391935   -0.236023   -1.136057
H       1.079452    1.790169   -0.136788
H      -0.593692    1.945257   -0.699182
H      -0.254670    1.766058    1.029388
H       0.317543   -0.371908   -1.112570
H       0.582450   -0.578954    0.618046
H      -1.385979   -1.116084    2.123217
H      -3.034292   -0.495097    1.713949
H      -1.574632   -2.897588    0.317529
H      -3.871123   -3.371715   -1.804382
H      -3.646547   -2.034009   -2.950136
H      -2.250240   -2.977960   -2.402881
H      -4.479610   -0.079534   -1.544907
H      -4.151837   -0.045176    0.239992
