17

O      -0.103061    0.157888    0.543008
C      -0.051180    1.321703    0.245777
C      -1.236949    2.281444    0.148244
O      -0.732654    3.508862   -0.331223
C       0.681917    3.575962   -0.074741
C       1.052848    4.093977    1.297062
C       1.885869    3.269880    1.932200
C       2.229474    2.044588    1.116183
C       1.219902    2.130157   -0.050739
H      -2.000623    1.903885   -0.539843
H      -1.694424    2.371817    1.146358
H       1.088299    4.204793   -0.873682
H       0.684356    5.043047    1.668539
H       2.311057    3.445348    2.914683
H       3.264670    2.086110    0.755390
H       2.127281    1.105489    1.671414
H       1.631871    1.792692   -1.005549
