21

C      -0.020047    1.670657   -0.229462
C      -0.297554    0.174887   -0.417948
C       0.844831   -0.537893   -1.127195
C       2.215067   -0.739242   -0.420177
C       2.320213   -2.138448   -1.079108
C       0.770019   -2.098736   -1.341754
N      -0.081042   -2.762865   -0.355930
C       0.355557   -2.528357   -2.677772
N       0.067034   -2.858050   -3.747698
H       0.883563    1.838601    0.366699
H       0.121295    2.172269   -1.193104
H      -0.851849    2.162470    0.283413
H      -0.482637   -0.290407    0.557133
H      -1.218606    0.035750   -0.996046
H       1.012243   -0.073610   -2.104737
H       3.005758   -0.022731   -0.647902
H       2.109263   -0.797484    0.668176
H       2.894805   -2.117869   -2.007891
H       2.664641   -2.974642   -0.465764
H       0.007291   -3.771020   -0.450161
H       0.234202   -2.529077    0.581003
