17

C      -0.097709    1.502069   -0.044415
C       1.224720    0.755530    0.013423
C      -0.068603    0.006266   -0.004108
C      -0.526985   -0.989308    1.022022
C      -1.727372   -1.695752    0.470371
C      -2.032703   -1.138006   -0.909519
C      -0.497625   -1.035832   -1.029869
N      -0.348952   -2.146113    0.071221
H      -0.421786    2.036728    0.842606
H      -0.367184    1.986450   -0.977917
H       1.840521    0.741121   -0.880340
H       1.788961    0.787773    0.940097
H      -0.232274   -1.066001    2.063079
H      -2.359270   -2.320773    1.092094
H      -2.434853   -1.917774   -1.561380
H      -2.623521   -0.221615   -1.008988
H       0.017516   -1.146489   -1.982738
