20

C      -0.130119    1.392484    0.084848
N      -0.056440   -0.061320    0.094936
C      -1.118508   -0.729049    0.051082
O      -2.418227   -0.248257   -0.008721
C      -3.200420   -1.490430   -0.037502
C      -4.667406   -1.181811   -0.103906
C      -2.499304   -2.323403    1.067968
C      -1.311439   -2.223472    0.049600
C      -2.404679   -2.333465   -1.068797
H       0.438074    1.772820   -0.771771
H      -1.148819    1.793859    0.037453
H       0.359573    1.781032    0.985139
H      -4.899586   -0.605402   -1.004439
H      -5.247695   -2.108561   -0.125032
H      -4.977924   -0.596730    0.766940
H      -2.381606   -1.856885    2.048610
H      -2.894072   -3.337253    1.156839
H      -0.419203   -2.840726    0.092014
H      -2.790463   -3.348272   -1.182670
H      -2.200567   -1.876131   -2.039535
