16

N      -0.081208    1.278183   -0.238487
C      -0.050717    0.044784    0.027135
O       1.110910   -0.612843    0.333696
C       1.083212   -1.981615    0.773888
C      -0.308151   -2.613874    0.649756
C      -0.930450   -2.164716   -0.706385
C      -1.294175   -0.813833   -0.003860
C      -1.311953   -1.648950    1.295844
O      -1.946672   -1.631079    2.305933
H       0.854504    1.682783   -0.165038
H       1.805050   -2.524997    0.154704
H       1.426540   -2.007901    1.814142
H      -0.294363   -3.662857    0.948815
H      -0.252315   -2.099416   -1.559221
H      -1.819351   -2.738732   -0.970208
H      -2.159816   -0.225845   -0.297041
