18

O      -0.025879    1.491040    0.087656
C       0.059902    0.071005    0.004942
C       0.583673   -0.511159    1.324220
O       1.042711   -1.836355    1.171965
C       0.063027   -2.843192    1.299732
C      -1.042879   -2.876138    0.274209
C      -1.608915   -1.880286   -0.408235
C      -1.343616   -0.398719   -0.367250
H       0.866257    1.839155    0.183893
H       0.764968   -0.238165   -0.782014
H       1.451160    0.078442    1.647446
H      -0.181916   -0.433517    2.113100
H       0.617948   -3.786578    1.252690
H      -0.391390   -2.799142    2.308068
H      -1.450010   -3.875416    0.124853
H      -2.428288   -2.154994   -1.070052
H      -2.041607    0.066776    0.346097
H      -1.594337    0.039975   -1.339401
