17

O       0.039413    0.091057   -0.685449
C       0.000962    1.166660   -0.164689
C      -1.153503    2.076747    0.303954
C      -0.075334    3.093112    0.768123
C       1.072412    2.170519    0.293582
C      -0.080585    4.618003    0.510802
C      -1.143710    4.800262    1.619772
C      -0.040266    3.839379    2.122149
O       0.976900    4.752234    1.543501
H      -1.812566    2.406262   -0.505768
H      -1.772669    1.634579    1.091171
H       1.735850    1.789311    1.075885
H       1.696019    2.559187   -0.517292
H       0.055978    5.162779   -0.424438
H      -1.145319    5.781837    2.094122
H      -2.146728    4.401292    1.452083
H       0.144760    3.448315    3.123617
