15

C      -0.093706    1.421879    0.036228
N      -0.023034   -0.028752    0.010236
C       0.583989   -0.588783   -0.954967
N       1.153643    0.003699   -2.074458
C       0.583392   -2.115898   -1.011107
O      -0.288426   -2.610458   -2.009182
C       1.960733   -2.626048   -1.217848
N       3.040689   -2.981364   -1.427134
H       0.884534    1.905298   -0.122044
H      -0.782870    1.806054   -0.729572
H      -0.468179    1.746630    1.009503
H       1.248404    1.007852   -2.049987
H       1.969288   -0.458082   -2.455348
H       0.207738   -2.470938   -0.050338
H      -0.125325   -2.108615   -2.817103
