16

O       0.189876    1.452116    0.075879
C       0.051743    0.050969    0.042291
C       0.655655   -0.537287   -1.176253
N       1.125941   -1.000025   -2.124323
C       0.664163   -0.564077    1.282806
C       0.318862   -0.285689    2.767047
C       1.674783   -1.023915    2.677940
C       1.077092   -2.010880    1.644671
O       2.058953   -0.126621    1.553529
H       1.099828    1.633080    0.350150
H      -1.022644   -0.164971    0.022512
H       0.373911    0.760345    3.066658
H      -0.529418   -0.817817    3.203298
H       2.421985   -1.197762    3.449818
H       0.296704   -2.696622    1.981186
H       1.795730   -2.468347    0.965407
