15

N      -0.118472   -1.154473    0.184431
C      -0.077596   -0.004024    0.087568
C      -0.035086    1.456768   -0.015069
C      -0.641776    2.090322    1.250253
C       0.195397    3.071276    1.630760
C       1.294733    2.643978    2.612424
C       2.084918    2.379088    1.258717
C       1.233356    3.327794    0.515053
N       1.363497    1.993619   -0.037733
H      -0.482441    1.745521   -0.975409
H      -1.193899    1.467589    1.946216
H       1.825362    3.437854    3.148785
H       1.063793    1.813944    3.282634
H       3.159386    2.245567    1.198732
H       1.453249    4.233135   -0.037118
