23

C       0.137184    1.606606   -0.134104
C       0.018316    0.087801    0.014838
C      -1.413732   -0.427771   -0.192349
C      -1.510185   -1.943611   -0.097372
C      -1.486225   -2.733931    1.242124
C      -2.924978   -2.279789    1.567826
C      -2.856618   -2.718895    0.077703
C      -3.962450   -2.949501   -0.904827
O      -2.052534   -3.894440    0.519902
H       1.166840    1.943882    0.020430
H      -0.173350    1.931601   -1.133439
H      -0.496188    2.127286    0.592868
H       0.686580   -0.405743   -0.702650
H       0.369794   -0.212585    1.010435
H      -2.079421    0.061790    0.527748
H      -1.764803   -0.117460   -1.186639
H      -0.877575   -2.431705   -0.846225
H      -0.654581   -2.929201    1.919597
H      -3.480907   -2.960822    2.214005
H      -3.114569   -1.230706    1.803571
H      -4.460443   -2.004366   -1.144204
H      -3.569168   -3.378152   -1.831762
H      -4.707140   -3.637296   -0.492698
