14

C      -0.012227    1.482015    0.018052
C       0.002592    0.027888   -0.051727
C       0.030062   -1.174087   -0.112733
C       0.025565   -2.629404   -0.177424
C      -1.376308   -3.211354    0.143527
C      -1.394118   -4.670781    0.081842
N      -1.387115   -5.825031    0.027855
H       0.684262    1.849991    0.779223
H       0.274922    1.929212   -0.939781
H      -1.009608    1.856490    0.273093
H       0.332029   -2.970075   -1.173121
H       0.753409   -3.047100    0.527669
H      -1.689754   -2.892142    1.142426
H      -2.112240   -2.814857   -0.562966
