15

O      -0.057733    1.476931    0.051049
C       0.013225    0.080920    0.001321
C      -1.368820   -0.632086   -0.121001
C      -1.965865    0.070989   -1.367257
C      -0.708609    0.071380   -2.262244
O      -0.583736    0.496550   -3.375445
C       0.339928   -0.619449   -1.383406
C      -0.549056   -1.745723   -0.789210
O      -0.510636   -2.936698   -0.769668
H       0.827422    1.839168   -0.058625
H       0.625086   -0.336130    0.809128
H      -2.012652   -0.805780    0.737495
H      -2.785704   -0.479024   -1.836467
H      -2.293723    1.090302   -1.154053
H       1.337760   -0.770072   -1.784354
