17

C       0.075797   -1.181834    0.033355
C       0.047736    0.020399    0.032642
C       0.027297    1.461871    0.039976
C      -1.065736    2.067007   -0.682265
C      -1.972503    2.580872   -1.281284
C       0.486201    2.264010    1.269264
C       1.584568    1.509666    2.024545
C       2.455347    1.528578    0.722506
C       1.327731    2.282346    0.011021
H       0.086934   -2.243550    0.025677
H      -2.776880    3.025212   -1.812916
H      -0.179648    3.018330    1.669197
H       2.021949    2.110362    2.824375
H       1.308200    0.529725    2.420600
H       3.353471    2.139258    0.833436
H       2.728883    0.560586    0.296250
H       1.432827    3.053470   -0.741721
