21

C       0.020225    1.565024    0.035293
C      -0.047564    0.067944    0.072314
C      -1.327633   -0.783835   -0.010782
C      -0.685851   -1.814998    0.992078
C      -1.362389   -1.765878    2.362922
C      -0.544584   -3.256472    0.506425
C       0.595860   -0.946939    0.977354
N       1.108227   -0.709215   -0.368356
H       1.032017    1.905701    0.270224
H      -0.238491    1.944702   -0.960780
H      -0.676792    2.011598    0.752743
H      -2.213135   -0.295875    0.405903
H      -1.574887   -1.156640   -1.011568
H      -2.367394   -2.200683    2.322722
H      -0.784247   -2.328620    3.105301
H      -1.454310   -0.736082    2.724228
H      -0.025534   -3.320536   -0.455913
H       0.017615   -3.861241    1.227105
H      -1.528048   -3.722589    0.375851
H       1.278276   -0.816866    1.812590
H       0.870636   -1.451089   -1.024566
