19

C      -0.068073   -1.213528   -0.110507
C      -0.029032   -0.014131   -0.028049
C       0.018644    1.432486    0.058728
C      -0.324674    2.055155    1.446010
C       0.813491    1.509907    2.339307
C       2.049082    1.547331    1.381981
C       1.429871    2.081110    0.078098
O       1.122115    3.467445    0.247334
C      -0.015235    3.526044    1.132297
H      -0.103830   -2.271946   -0.187461
H      -0.584298    1.876768   -0.740341
H      -1.334254    1.876911    1.816690
H       0.950885    2.123947    3.233375
H       0.595026    0.490092    2.663807
H       2.836130    2.222484    1.724337
H       2.483904    0.554708    1.239975
H       2.034684    1.969989   -0.821725
H      -0.843949    4.033546    0.621323
H       0.240616    4.100553    2.031163
