25

C       0.162123    1.554413    0.147448
C       0.065132    0.027432    0.017276
C       0.835531   -0.658949    1.153575
C      -1.391431   -0.471100   -0.020827
C      -2.209327   -0.007446   -1.231892
C      -3.615877   -0.616437   -1.267188
C      -4.437560   -0.160346   -2.485990
C      -5.848610   -0.698223   -2.447445
O      -6.363464   -1.362140   -3.309819
H       1.207669    1.877469    0.186445
H      -0.309737    2.072389   -0.692584
H      -0.324272    1.898465    1.068619
H       0.539753   -0.261436   -0.932208
H       0.401577   -0.406933    2.128776
H       0.811192   -1.749061    1.051509
H       1.884788   -0.346156    1.168162
H      -1.383594   -1.569455   -0.004228
H      -1.899938   -0.159573    0.903451
H      -2.296250    1.086255   -1.235109
H      -1.677151   -0.274304   -2.155284
H      -3.541934   -1.711508   -1.272258
H      -4.152293   -0.350322   -0.346196
H      -4.502426    0.937988   -2.483058
H      -3.970728   -0.469588   -3.425948
H      -6.409873   -0.435749   -1.518370
