22

C      -0.076349    1.448824   -0.163369
C      -0.047276   -0.080600   -0.117830
C      -1.440186   -0.690810    0.045543
C      -1.428485   -2.214251    0.046392
O      -0.467920   -2.877705   -0.284572
N      -2.587018   -2.796752    0.545150
C      -3.954514   -2.595559    0.115569
C      -3.284533   -3.941401    0.006997
C      -2.912161   -4.516552   -1.339382
H       0.931589    1.859475   -0.276872
H      -0.679306    1.812403   -1.003496
H      -0.504450    1.868485    0.754084
H       0.409542   -0.481733   -1.027707
H       0.589201   -0.420099    0.706945
H      -1.923856   -0.341980    0.966014
H      -2.096470   -0.359550   -0.772790
H      -4.683303   -2.399803    0.898454
H      -4.124007   -2.052613   -0.812660
H      -3.548303   -4.681149    0.761998
H      -2.766223   -3.728711   -2.083917
H      -1.980417   -5.083599   -1.272616
H      -3.705271   -5.182913   -1.693435
