18

C       0.168445    1.579304   -0.069987
C       0.066394    0.065869    0.001916
O       0.746515   -0.494260   -1.120883
C       1.275886   -1.769859   -0.787748
C       1.522641   -1.730503    0.705865
N       2.220791   -0.507669    1.128199
C       0.734289   -0.576300    1.222630
C       0.082650   -0.560809    2.493841
C      -0.476613   -0.509019    3.558071
H       1.216013    1.881822   -0.003403
H      -0.245138    1.939969   -1.015369
H      -0.391908    2.036395    0.751201
H      -0.990844   -0.247195    0.004365
H       0.567040   -2.580915   -1.021084
H       2.185735   -1.915626   -1.378741
H       1.630639   -2.647987    1.273807
H       2.603917   -0.648373    2.060882
H      -0.968125   -0.472404    4.498699
