23

C      -0.005330    1.608654   -0.013156
C       0.055507    0.078178   -0.029993
C       0.704227   -0.525172    1.221411
C      -0.129568   -0.376447    2.533325
C      -0.269539   -1.844899    2.930507
C       1.073925   -2.588136    2.631427
C       0.274727   -3.865076    2.283509
C      -0.521500   -2.701898    1.647181
C       0.826273   -2.052412    1.185147
H       0.998835    2.041785    0.058076
H      -0.472216    1.998953   -0.922986
H      -0.583612    1.977372    0.840755
H      -0.958180   -0.329460   -0.142882
H       0.614924   -0.250990   -0.915761
H       1.698225   -0.074615    1.345523
H       0.381458    0.215421    3.299538
H      -1.103593    0.093756    2.354452
H      -0.816962   -2.093492    3.842675
H       2.001804   -2.510249    3.202899
H       0.749483   -4.572092    1.596598
H      -0.202094   -4.389916    3.116881
H      -1.450370   -2.762962    1.076137
H       1.372104   -2.507526    0.354694
