17

N       0.150268    1.231423   -0.425907
C       0.035687   -0.111295   -0.138471
N      -1.091065   -0.798333   -0.067766
C      -0.651829   -2.028948    0.327325
N       0.646546   -2.153506    0.500460
N       1.096973   -0.889436    0.187672
C       2.467786   -0.505760    0.296684
C       3.511091   -1.484989   -0.144045
C       3.259041   -0.252823   -0.973045
H       0.999908    1.494542   -0.905295
H      -0.680391    1.595887   -0.870280
H      -1.321940   -2.861511    0.485273
H       2.686320    0.119954    1.157678
H       4.420165   -1.540637    0.442492
H       3.148273   -2.433305   -0.518846
H       2.740738   -0.384579   -1.916416
H       3.991795    0.546261   -0.960455
