25

C      -0.271228    1.573621   -0.017204
C      -0.042062    0.063416    0.010038
C       1.128338   -0.469456   -0.884285
C       1.607146    0.310391   -2.100082
C       2.034028   -0.545666    0.380173
C       2.956279   -1.745828    0.539891
O       2.781179    0.667836    0.456992
C       0.733800   -0.493428    1.251306
C       0.756174    0.270440    2.567187
H       0.654834    2.128676    0.149596
H      -0.681284    1.885563   -0.983884
H      -0.990227    1.872305    0.753661
H      -0.997768   -0.439885   -0.171091
H       0.891622   -1.496419   -1.185542
H       1.909044    1.325243   -1.834783
H       2.470528   -0.180157   -2.562854
H       0.817858    0.371133   -2.857605
H       3.750983   -1.723876   -0.212982
H       3.431715   -1.746732    1.529791
H       2.406010   -2.686336    0.438256
H       3.237440    0.679245    1.305192
H       0.404709   -1.522320    1.438261
H       1.122615    1.292088    2.434893
H      -0.245492    0.329932    3.006236
H       1.400933   -0.227400    3.301873
