23

O      -1.924684    1.357663   -1.733603
C      -1.892867   -0.061013   -1.642423
C      -1.486470   -0.420301   -0.217359
C      -1.609565   -1.904543    0.134403
C      -0.760808   -2.793899   -0.772408
O       0.592785   -2.371742   -0.681851
C      -1.376190   -2.250972    1.639621
C      -2.655604   -3.130628    1.625173
C      -3.054671   -2.487013    0.269165
H      -2.119965    1.594469   -2.644780
H      -2.881196   -0.492858   -1.874459
H      -1.172755   -0.482662   -2.359824
H      -0.455648   -0.090749   -0.051372
H      -2.121570    0.159037    0.463567
H      -0.867888   -3.844350   -0.457325
H      -1.128398   -2.731463   -1.809750
H       1.129888   -2.955400   -1.224988
H      -0.426836   -2.736389    1.876756
H      -1.482494   -1.370726    2.279706
H      -2.435961   -4.197846    1.535543
H      -3.353573   -2.999746    2.455111
H      -3.800869   -1.695402    0.382943
H      -3.392894   -3.161972   -0.523650
