18

C      -0.111982    1.553361   -0.022163
C      -0.000312    0.047636    0.056513
O      -1.109332   -0.632576   -0.435335
C       1.366620   -0.644128   -0.199066
C       2.553183    0.106312   -0.457533
N       3.506608    0.737239   -0.648130
C       0.683386   -0.641059    1.195762
C       1.306187    0.124826    2.340928
O       0.093362   -1.844079    1.568791
H       0.794245    2.062809    0.307713
H      -0.290757    1.855601   -1.061014
H      -0.955861    1.897908    0.582757
H      -1.265406   -0.329688   -1.337200
H       1.276313   -1.592070   -0.717891
H       1.818887    1.030676    2.015081
H       0.538684    0.392433    3.073115
H       2.051710   -0.503992    2.842230
H       0.757116   -2.367048    2.032896
