19

C      -0.506261    1.198743   -0.248581
C       0.483845    0.105090    0.159519
N       1.128025   -0.521894   -0.979162
C       0.910609   -1.810036   -1.333108
O       0.193219   -2.598638   -0.748482
C       1.689654   -2.201933   -2.594129
N       2.418180   -1.345641   -3.186420
O       1.462402   -3.487461   -2.901470
C       2.112271   -4.009520   -4.051483
H      -0.009906    1.992733   -0.816972
H      -1.306070    0.785172   -0.869525
H      -0.957722    1.653670    0.638776
H       1.250944    0.521384    0.824636
H      -0.026256   -0.695005    0.700755
H       1.742351    0.004685   -1.584395
H       2.890764   -1.705823   -4.013197
H       3.203178   -3.959933   -3.948812
H       1.801373   -5.051483   -4.125510
H       1.808591   -3.472193   -4.958217
