19

C      -0.041651    1.493052    0.045921
C      -0.011781   -0.021499    0.029469
C       0.625401   -0.696965   -1.219893
O       0.146290   -2.049709   -1.186569
C      -0.691475   -2.151175   -0.005630
C       0.213310   -2.012402    1.208761
C       0.623273   -0.736191    1.217893
C      -1.386942   -0.772551   -0.013391
O      -2.275678   -0.481802    1.029976
H       0.961602    1.917343    0.161582
H      -0.466991    1.888612   -0.882580
H      -0.660729    1.850796    0.874468
H       0.285635   -0.212940   -2.145215
H       1.721915   -0.684076   -1.197962
H      -1.303495   -3.046490   -0.095972
H       0.547897   -2.821654    1.844977
H       1.359597   -0.284665    1.873053
H      -1.933190   -0.599224   -0.944518
H      -1.806813   -0.661734    1.855343
