14

N       0.077189    0.842784   -1.214297
C       0.026772    0.113505   -0.176625
O       1.249978   -0.158598    0.442359
N       1.558781   -0.884885    1.571678
C       0.717848   -1.503610    2.307747
C      -0.746372   -1.716395    2.318899
N      -1.298976   -2.427849    3.234808
C      -1.621230   -1.136906    1.307154
C      -1.277134   -0.370658    0.268138
H       1.042973    1.111362   -1.415218
H       1.233043   -1.996899    3.133770
H      -0.602079   -2.786115    3.893295
H      -2.667728   -1.382016    1.455040
H      -2.054998   -0.014622   -0.398023
