20

C      -0.007210    0.907869    0.796510
N      -0.216300   -0.050198   -0.268152
C      -1.169095   -0.859671   -0.136918
O      -1.431838   -1.769403   -1.099760
C      -2.539602   -2.656962   -0.848502
C      -2.816856   -3.371041   -2.170232
C      -2.252102   -3.587901    0.243714
C      -2.013818   -4.355020    1.140758
C      -1.720106   -5.281406    2.223975
H      -0.079088    1.925751    0.395893
H      -0.720700    0.815407    1.632358
H       1.006671    0.796794    1.198061
H      -1.847295   -0.899665    0.728873
H      -3.415210   -2.047833   -0.579173
H      -3.029457   -2.635195   -2.949564
H      -1.945552   -3.959286   -2.466712
H      -3.673861   -4.039887   -2.061499
H      -2.346176   -5.082734    3.100528
H      -1.893569   -6.318397    1.916862
H      -0.673449   -5.198635    2.536155
