18

C       0.025012    1.557419   -0.024828
C       0.003166    0.039315    0.072725
O       0.582615   -0.333220    1.302634
C      -1.440776   -0.524705   -0.012709
N      -2.137909   -0.159285   -1.255627
C      -2.490239   -1.254944   -1.801310
N      -2.152535   -2.414625   -1.105624
C      -1.440315   -2.052079    0.030165
N      -0.859683   -2.766705    0.911426
H       1.056339    1.912918    0.048635
H      -0.406412    1.889752   -0.971106
H      -0.545825    1.997180    0.799272
H       0.569600   -0.384107   -0.776046
H       0.407382   -1.281155    1.433528
H      -1.992042   -0.123492    0.846398
H      -3.028260   -1.334627   -2.740478
H      -2.280841   -3.356474   -1.436902
H      -0.939899   -3.767927    0.734419
