17

C       0.329050    1.422478    0.375192
N       0.025384    0.049170    0.005473
C       1.136580   -0.820139   -0.339792
C      -1.270196   -0.388556    0.137226
O      -2.202497    0.336029    0.443843
N      -1.459470   -1.747605   -0.115429
C      -2.703571   -2.346513   -0.053809
N      -2.820388   -3.595638   -0.262834
H       0.838740    1.938195   -0.446883
H      -0.609280    1.929149    0.593115
H       0.974128    1.462161    1.262561
H       1.415416   -1.503376    0.475129
H       0.925499   -1.409479   -1.238984
H       2.006595   -0.199803   -0.563041
H      -0.690780   -2.368264   -0.312793
H      -3.491843   -1.630130    0.182375
H      -3.796180   -3.873847   -0.181502
