15

C      -0.806899    1.055121    0.036197
C       0.554645    0.357427    0.024921
C       0.899917   -0.391134   -1.221931
C       0.216576   -0.583447   -2.393347
O       0.997878   -1.361253   -3.222873
C       2.106055   -1.591156   -2.501128
N       2.115511   -1.054734   -1.324361
C      -1.037439   -0.176005   -2.889954
N      -2.069274    0.160489   -3.295838
H      -0.886894    1.800856   -0.759526
H      -1.627949    0.343973   -0.089618
H      -0.951818    1.567740    0.990740
H       1.356801    1.085685    0.200219
H       0.626152   -0.350735    0.860364
H       2.871029   -2.193307   -2.966852
