18

C      -0.023222   -1.219847   -0.040111
C      -0.027516   -0.018662   -0.024066
C      -0.031330    1.440808    0.023735
N       1.314294    1.988130    0.048878
C       2.151088    1.734648    1.247802
C       2.563069    3.206875    1.207705
C       3.200450    4.072806    2.192910
O       3.894404    3.636139    1.012455
C       1.445647    3.457517    0.194252
H      -0.020063   -2.281414   -0.065337
H      -0.543060    1.834681   -0.863917
H      -0.630584    1.767282    0.899366
H       1.572356    1.474940    2.148182
H       2.945206    0.996787    1.102391
H       2.954448    5.133749    2.224384
H       3.563994    3.653002    3.130241
H       1.723337    3.985820   -0.723543
H       0.562922    3.942555    0.642632
