21

C      -1.288720    0.296073   -2.529128
C      -1.061213    0.605135   -1.040928
C      -2.201997    0.145149   -0.158579
N      -2.903761    1.011095    0.447129
C      -3.951951    0.667521    1.386489
N      -2.408921   -1.270537   -0.109477
C      -1.280769   -2.174317    0.109168
C      -3.639499   -1.816333   -0.400948
O      -3.881952   -3.002332   -0.424950
H      -0.444355    0.651295   -3.126633
H      -1.399194   -0.777570   -2.710462
H      -2.192940    0.792509   -2.894400
H      -0.126122    0.137489   -0.709281
H      -0.957573    1.680062   -0.882737
H      -3.874173    1.346995    2.241706
H      -4.935111    0.846066    0.935327
H      -3.925069   -0.366975    1.753213
H      -0.689401   -1.840393    0.965403
H      -1.693756   -3.162791    0.309523
H      -0.631279   -2.239142   -0.770402
H      -4.388446   -1.041964   -0.636852
