16

C      -0.171664    1.498861    0.009283
C      -0.000222   -0.008452    0.001571
O      -1.312072   -0.593821    0.012820
C      -1.367368   -1.938565    0.009785
N      -0.339588   -2.675283   -0.002526
C      -2.815988   -2.383416    0.022961
O      -2.845515   -3.794770    0.020090
H       0.808701    1.984505    0.000754
H      -0.729543    1.833699   -0.870037
H      -0.710702    1.826789    0.902844
H       0.538116   -0.357161   -0.885999
H       0.556378   -0.364215    0.874927
H      -0.633146   -3.651647   -0.002225
H      -3.301224   -1.956603    0.913895
H      -3.318481   -1.952638   -0.856429
H      -3.762907   -4.080230    0.027168
