17

C      -0.045001   -1.200209   -0.220377
C       0.042320   -0.007742   -0.099504
C       0.099894    1.436987    0.073867
C      -0.668230    1.925164    1.373792
C       0.061805    3.245978    1.644354
C       0.958640    3.652154    2.867637
N       2.140046    3.647987    1.931000
C       1.386099    2.906712    1.027967
N       1.514984    1.922458    0.237923
H      -0.106768   -2.253478   -0.339286
H      -0.347208    1.909696   -0.813146
H      -1.744615    2.017975    1.214095
H      -0.495929    1.194291    2.169194
H      -0.440081    4.114204    1.211191
H       0.766146    4.625168    3.323764
H       1.020186    2.873603    3.635263
H       3.052783    3.318651    2.224067
