17

C       0.195640    1.714078    0.010176
C       0.084901    0.208769   -0.008453
C       0.608461   -0.658555   -1.096149
C       1.671890   -0.118978   -2.055289
N       2.824656    0.221146   -1.204433
C       2.502923   -0.081910   -0.003378
C       3.445187    0.202559    1.117192
O       3.172857    0.054835    2.280731
N       1.248830   -0.698415    0.249103
H       1.081494    2.085366   -0.509556
H      -0.685942    2.147144   -0.474206
H       0.224911    2.082879    1.040382
H      -0.798689   -0.164605    0.504375
H       0.051919   -1.545793   -1.381433
H       1.973372   -0.876479   -2.787623
H       1.366708    0.767050   -2.625037
H       4.422892    0.589621    0.767270
