18

O      -0.315422    0.013025    0.161965
C      -0.142521    1.173496   -0.099007
C       1.197474    1.889286    0.004599
C       1.440175    2.798497   -1.224563
C       1.500541    2.055909   -2.477079
C       1.541129    1.411086   -3.490257
C       1.212632    2.704555    1.290146
C       1.554215    2.061377    2.581186
N       2.484977    3.021325    1.957993
H      -0.990363    1.828954   -0.409688
H       1.969531    1.114436    0.058814
H       0.639806    3.549247   -1.277208
H       2.369243    3.359866   -1.071193
H       1.576882    0.850613   -4.391558
H       0.508961    3.535996    1.301653
H       1.090198    2.404985    3.500714
H       1.803247    1.003640    2.565196
H       3.246656    2.515608    1.510241
