23

C       0.020553    1.571703    0.016517
C      -0.023224    0.060031    0.016693
C       0.443776   -0.666770   -1.282449
C      -0.867989   -1.517456   -1.315811
C      -0.745843   -3.006803   -0.980689
C      -0.408798   -3.073761    0.533136
C      -0.780057   -1.693487    1.132751
C       0.400105   -0.686286    1.306426
C      -1.340726   -0.801607   -0.023531
H       1.056232    1.935200    0.030502
H      -0.461354    1.987530   -0.876125
H      -0.486822    1.987460    0.894790
H       0.526307    0.012660   -2.135416
H       1.381690   -1.227475   -1.205551
H      -1.466726   -1.338891   -2.211852
H      -1.707569   -3.498108   -1.171326
H      -0.001446   -3.517752   -1.600982
H      -0.958590   -3.884633    1.020025
H       0.653900   -3.284262    0.694008
H      -1.411492   -1.786291    2.018014
H       1.411901   -1.107401    1.332426
H       0.268440   -0.056316    2.191986
H      -2.348732   -0.392469    0.054032
