15

O       0.141995    1.380336   -0.212715
C       0.057300   -0.025986   -0.011191
C       0.500323   -0.466791    1.438723
O      -0.682881   -0.910437    2.203378
C      -1.620320   -1.003143    1.248239
C      -1.327029   -0.591414   -0.010551
N      -2.420103   -0.756552   -0.836921
C      -3.343087   -1.268826   -0.059678
N      -2.905998   -1.445633    1.254402
H      -0.689864    1.762785    0.087369
H       0.741180   -0.458141   -0.748220
H       1.187909   -1.316103    1.408262
H       0.952389    0.366005    1.978985
H      -4.344480   -1.543523   -0.353815
H      -3.427715   -1.831567    2.022865
