25

C      -0.343832    1.654335    0.924768
C      -0.210713    0.123566    0.774221
C      -1.654797   -0.368692    0.537477
C       0.928334   -0.483227   -0.124626
C       1.947300    0.110423    0.894755
C       0.837868   -0.574027    1.749393
C       0.944937   -1.800502    0.770686
C      -0.183840   -2.853206    0.808478
C       2.245532   -2.630215    0.710291
H       0.525514    2.168265    1.332642
H      -0.585137    2.116161   -0.040000
H      -1.181994    1.871078    1.596887
H      -1.731709   -1.253166   -0.089931
H      -2.181551   -0.565923    1.478374
H      -2.214871    0.422178    0.027278
H       0.988649   -0.435853   -1.216492
H       2.940383   -0.325224    0.940045
H       2.029840    1.191995    0.932762
H       0.783794   -0.617649    2.841743
H      -0.494762   -3.159120   -0.197212
H       0.193790   -3.753556    1.304688
H      -1.067843   -2.545674    1.361471
H       2.430793   -3.125517    1.670835
H       2.123198   -3.423839   -0.035653
H       3.146187   -2.081370    0.438563
