18

C       0.052699    1.483151    0.034424
C       0.076493   -0.028717    0.010622
O       0.760909   -0.447427   -1.150705
C       0.812269   -1.868647   -1.247901
C       1.504348   -2.440675   -0.005301
O       2.872642   -2.077061    0.022237
C       0.772884   -1.908329    1.232366
O       0.723874   -0.484707    1.179127
H       1.076230    1.865638    0.056026
H      -0.449145    1.862234   -0.858437
H      -0.476122    1.833692    0.923366
H      -0.947747   -0.451025   -0.012422
H      -0.204267   -2.282744   -1.351952
H       1.385007   -2.100864   -2.148401
H       1.469429   -3.535559   -0.023361
H       2.889779   -1.112195    0.037955
H      -0.246225   -2.325050    1.290794
H       1.316873   -2.169526    2.142698
