17

C      -0.169774    1.545500   -0.060746
C       0.020608    0.040958    0.036413
O       0.801632   -0.433519   -1.086304
C       1.916689   -1.202041   -0.562843
C       2.848615   -0.297000    0.196821
C       2.182348    0.118704    1.291881
C       0.802762   -0.491216    1.277343
C       1.225388   -1.859388    0.656417
O       1.062726   -2.985759    1.006346
H       0.787671    2.067825    0.007801
H      -0.627642    1.797395   -1.021731
H      -0.829327    1.902073    0.737680
H      -0.958610   -0.458336    0.008238
H       2.310842   -1.838994   -1.349652
H       3.857232   -0.041105   -0.098851
H       2.549028    0.778717    2.067446
H       0.241025   -0.516996    2.208000
