18

C      -0.022639    1.692017    0.681697
C      -0.083610    0.264948    0.124627
C       0.698998   -0.761329    0.999405
O       0.747646   -2.040746    0.409742
C       2.124378   -0.298930    1.253802
O       3.066017   -0.945520    0.858539
C      -1.562152   -0.162278   -0.050922
N      -1.744745   -1.390829   -0.606502
O      -2.480969    0.578570    0.244635
H       0.971159    2.131385    0.561211
H      -0.747819    2.317267    0.160596
H      -0.289528    1.717952    1.743148
H       0.381361    0.233287   -0.869336
H       0.198958   -0.823873    1.980718
H       1.688805   -2.205013    0.227363
H       2.261899    0.640888    1.816594
H      -0.975492   -2.044988   -0.613361
H      -2.690012   -1.739239   -0.633227
