20

C      -0.084722    1.471977    0.003931
C       0.053948   -0.025623    0.028409
C       0.700021   -0.774793   -1.127309
C       1.258056   -2.069256   -0.562838
C       1.192665   -2.018753    0.957288
C       0.237146   -0.872728    1.249655
N      -1.063506   -0.848863    0.547930
C      -1.288835   -1.981344   -0.366861
C      -0.072216   -2.070082   -1.274912
H       0.896917    1.957868   -0.028958
H      -0.652271    1.802218   -0.873640
H      -0.611910    1.821660    0.895118
H       1.142791   -0.246178   -1.961270
H       2.095065   -2.566109   -1.041153
H       0.856655   -2.966155    1.398134
H       2.177395   -1.796210    1.385014
H       0.206073   -0.463236    2.256795
H      -1.463855   -2.896265    0.211935
H      -2.197361   -1.780691   -0.945931
H      -0.151326   -2.569078   -2.235126
