17

C       0.382927    0.743902    0.654792
C      -0.381996    0.283390   -0.596997
C       0.521989   -0.194168   -1.684779
N       0.652263    0.296948   -2.846113
C       1.652924   -0.500669   -3.551846
C       2.071005   -1.602065   -2.517529
O       1.293230   -1.284342   -1.350135
C       1.772703   -2.968649   -2.956066
N       1.552822   -4.038098   -3.333568
H       0.987752   -0.068117    1.065810
H       1.046838    1.581716    0.421770
H      -0.319544    1.072322    1.425141
H      -1.058322   -0.537861   -0.331754
H      -0.985479    1.094020   -1.009903
H       1.230951   -0.933042   -4.462979
H       2.506753    0.119900   -3.839425
H       3.130011   -1.545022   -2.249733
