21

C       0.841602   -0.181755   -1.234987
C      -0.072919   -0.213330   -0.003820
C       0.605865   -0.713569    1.265479
C       1.766513    0.116508    1.800248
C       1.377947    1.536976    2.229672
C      -0.268793   -1.399985    2.289207
C       0.689293   -2.211563    1.447867
H       1.278059   -1.168163   -1.424679
H       0.284382    0.117308   -2.128348
H       1.666482    0.527267   -1.111819
H      -0.490219    0.787207    0.168169
H      -0.932117   -0.861980   -0.214582
H       2.200203   -0.409569    2.659634
H       2.564386    0.166644    1.048132
H       1.027159    2.136806    1.383822
H       0.576474    1.515664    2.975772
H       2.233045    2.060291    2.668961
H      -0.032687   -1.263510    3.339850
H      -1.330685   -1.489808    2.084221
H       0.272536   -2.846779    0.672601
H       1.568937   -2.624886    1.930663
