18

O       0.325789    0.177573   -0.975563
C       0.170152    1.226122   -0.387313
N       1.087900    1.813352    0.428569
C       2.403514    1.237073    0.690121
C       3.519001    2.160121    0.306237
C       4.472825    2.665084    1.084314
C       5.404400    3.517830    0.272806
O       4.858144    3.517566   -1.043541
C       3.737600    2.641784   -1.107771
H      -0.758147    1.826815   -0.456491
H       0.854173    2.694061    0.859403
H       2.492506    0.961729    1.747400
H       2.434474    0.314164    0.101531
H       4.597104    2.491642    2.146525
H       5.468203    4.552225    0.644813
H       6.431738    3.117154    0.261139
H       3.940507    1.802996   -1.794334
H       2.868908    3.182327   -1.511381
