20

C       0.520302    1.589929    0.357455
C       0.033553    0.146392    0.255036
N       0.705259   -0.523457   -0.853376
C       1.957792   -1.226358   -0.733532
C       2.072663   -2.051988    0.567417
C       0.776114   -2.823491    0.136952
C      -0.396989   -2.934489    1.075442
O      -1.535370   -2.658321    0.792462
C       0.676542   -1.936837   -1.121439
H       1.592781    1.627317    0.576709
H       0.351356    2.120177   -0.583818
H      -0.006367    2.118642    1.157737
H       0.177791   -0.355704    1.223655
H      -1.040332    0.112971    0.047905
H       2.795927   -0.921701   -1.350809
H       2.954107   -2.694696    0.585916
H       2.030818   -1.490175    1.505357
H       1.051938   -3.851728   -0.132392
H      -0.138561   -3.330160    2.087009
H       0.327964   -2.274186   -2.091062
