20

C      -0.063134    1.457851   -0.023599
C      -0.131962   -0.039535    0.036977
N      -1.230677   -0.669827   -0.044296
C      -1.237069   -2.133929   -0.052825
C      -2.361032   -2.562441   -1.007129
O      -3.579290   -1.949572   -0.656548
C       0.127977   -2.717547   -0.418986
C       1.195838   -1.986141    0.382301
O       1.112409   -0.567423    0.184661
H       0.592121    1.771887   -0.842188
H      -1.061620    1.866359   -0.172478
H       0.364786    1.854607    0.902536
H      -1.525820   -2.469948    0.953650
H      -2.061789   -2.311956   -2.040092
H      -2.508283   -3.647302   -0.956387
H      -3.343210   -1.027819   -0.477186
H       0.174740   -3.791185   -0.209680
H       0.318728   -2.579694   -1.490236
H       1.086124   -2.193569    1.454768
H       2.208552   -2.265304    0.081982
