17

N       0.024959    1.317403    0.083881
C      -0.009248   -0.058549    0.001704
C      -1.140486   -0.784658   -0.139331
C      -1.183460   -2.238874   -0.059495
N      -2.204285   -2.988494   -0.206667
O      -0.020286   -2.904744    0.239242
C       1.209364   -2.250636    0.223792
C       1.767838   -1.628195   -1.016984
C       1.289743   -0.747894    0.142436
H       0.864229    1.766389   -0.250626
H      -0.820093    1.805869   -0.173333
H      -2.094870   -0.290965   -0.290744
H      -3.023593   -2.413433   -0.394488
H       1.895885   -2.761198    0.889302
H       2.835598   -1.705046   -1.190699
H       1.148097   -1.631582   -1.906407
H       2.036977   -0.236367    0.741037
