21

C       0.088522    1.577743    0.054468
C       0.040811    0.051934   -0.003174
C       0.581738   -0.488932   -1.337881
C       0.900322   -1.991217   -1.280232
C      -0.155738   -2.814428   -0.535728
N      -0.125986   -2.667362    0.921683
C       0.505237   -1.724752    1.710250
O       0.786129   -1.959118    2.874997
N       0.790868   -0.504386    1.124075
H       1.124675    1.932729    0.017514
H      -0.445148    2.009820   -0.796644
H      -0.373936    1.954001    0.972387
H      -1.010275   -0.257577    0.090266
H      -0.163724   -0.290682   -2.118337
H       1.487732    0.062014   -1.617991
H       0.985368   -2.382999   -2.299553
H       1.870512   -2.150297   -0.799301
H      -1.154716   -2.571991   -0.928971
H       0.009720   -3.875474   -0.751689
H      -0.269447   -3.512678    1.451053
H       1.120911    0.149552    1.817684
