17

C       0.167189    1.386947    0.189402
C       0.050166   -0.101213   -0.016419
O       0.994887   -0.817611   -0.252655
C      -1.343093   -0.762178    0.085511
O      -1.252696   -2.117780   -0.216269
C      -1.894672   -0.554922    1.511794
O      -1.430056   -1.137772    2.463640
C      -3.067591    0.390798    1.695709
O      -3.384169    0.562951    3.041072
H       1.179426    1.714565   -0.049206
H      -0.557176    1.926430   -0.429323
H      -0.050202    1.633781    1.235357
H      -2.013508   -0.255213   -0.627043
H      -0.299487   -2.305682   -0.261505
H      -2.830627    1.356240    1.218449
H      -3.912017   -0.029945    1.118779
H      -2.840293   -0.085349    3.516525
