17

N       0.272040    1.302908   -0.421502
C       0.058317   -0.052848   -0.138747
C      -1.093200   -0.778393   -0.096421
O      -0.819631   -2.096739    0.151794
C       0.529299   -2.209281    0.266188
C       1.123946   -0.994758    0.096627
N       2.474490   -0.618782    0.202921
C       3.495084   -1.583619   -0.188864
C       3.226352   -0.392959   -1.040581
H       1.058526    1.666363    0.104162
H      -0.543107    1.876868   -0.248842
H      -2.132524   -0.525946   -0.220827
H       0.909164   -3.189624    0.498143
H       4.374192   -1.619335    0.447289
H       3.159701   -2.545936   -0.568520
H       2.703138   -0.557263   -1.978578
H       3.903117    0.455701   -1.025674
