19

O      -0.219259    1.547143    0.031504
C       0.033917    0.152759   -0.023221
C      -1.312690   -0.556766    0.102019
C      -1.205351   -2.046086    0.027269
O      -2.228172   -2.841841    0.649224
C      -0.853937   -3.086762    0.993923
C      -0.192030   -3.957416   -0.119058
C      -1.164997   -4.266821   -1.224979
C      -0.566193   -2.887617   -1.136305
H       0.620310    2.009375   -0.045381
H       0.522196   -0.125775   -0.970557
H       0.698190   -0.169288    0.794254
H      -1.776261   -0.284013    1.055217
H      -1.974092   -0.191027   -0.693930
H      -0.589909   -3.046838    2.044356
H       0.755672   -4.464366    0.002993
H      -0.762156   -4.882618   -2.023029
H      -2.212627   -4.423356   -1.002454
H       0.052626   -2.461125   -1.914866
