21

O       0.345767    0.457508   -1.039731
C      -0.100433    0.445334    0.312465
C      -1.465013   -0.227484    0.329387
C      -1.454592   -1.722439    0.016004
C      -1.371342   -2.462134    1.340939
C      -1.335513   -1.412353    2.446927
C      -2.172016   -0.338242    1.707635
C      -3.434094   -1.151477    1.326127
C      -2.708235   -2.305650    0.637834
H       1.232776    0.827904   -1.059178
H       0.610821   -0.098255    0.951108
H      -0.186613    1.471087    0.708096
H      -2.101011    0.316856   -0.380204
H      -1.019777   -2.114713   -0.892607
H      -0.882182   -3.423385    1.427015
H      -1.825756   -1.749277    3.366981
H      -0.325186   -1.081151    2.704141
H      -2.343514    0.597306    2.240496
H      -4.009920   -1.468083    2.202601
H      -4.100322   -0.601477    0.653168
H      -3.227602   -3.148347    0.200720
