21

C       0.138858    1.477876   -0.025206
N      -0.018353    0.033778    0.057012
C      -0.098560   -0.564775    1.284962
O      -0.048916    0.018404    2.350468
C      -0.085495   -0.730774   -1.175449
C       0.843546   -1.974474   -1.302753
N      -0.315523   -2.839638   -1.020722
C      -0.442656   -4.096786   -1.720489
C      -1.255454   -1.747465   -1.329227
H       1.069433    1.745335   -0.539834
H      -0.699810    1.936648   -0.562334
H       0.167647    1.863871    0.993542
H      -0.215942   -1.659807    1.202233
H       0.001752   -0.019709   -1.995491
H       1.238291   -2.086302   -2.326319
H       1.670197   -2.055898   -0.588678
H       0.370890   -4.768800   -1.428409
H      -1.388057   -4.578588   -1.450570
H      -0.416539   -3.983538   -2.821461
H      -2.097942   -1.648369   -0.636205
H      -1.639335   -1.775084   -2.362615
