16

O      -0.122447    0.207334   -0.381332
C      -0.037412    1.382165   -0.213878
O       1.136356    1.988330    0.090587
C       1.135021    3.412731    0.258012
C       1.269556    3.720251    1.693880
N       1.375330    3.983215    2.813257
C       2.255266    4.017622   -0.552798
C       2.016886    4.334257   -2.005856
C       2.144985    5.451969   -1.004379
H      -0.880728    2.095632   -0.293342
H       0.173865    3.823249   -0.083011
H       3.237366    3.654987   -0.269923
H       2.831889    4.157158   -2.697431
H       1.034008    4.129953   -2.417915
H       1.249399    6.003742   -0.738711
H       3.048723    6.049256   -0.999476
