18

C      -0.465545    1.228108   -0.323080
N      -0.241658   -0.198998   -0.429914
C       0.875415   -0.720832   -0.993892
O       1.774463   -0.079632   -1.504242
C       0.943484   -2.265784   -0.986436
O      -0.056894   -2.830200   -0.147693
C      -0.758237   -3.816098   -0.908005
C      -0.564199   -3.321365   -2.337270
O       0.750641   -2.782523   -2.290011
H       0.343454    1.726467   -0.859098
H      -1.423367    1.512744   -0.771679
H      -0.457368    1.559014    0.721848
H      -0.848873   -0.851216    0.040535
H       1.949561   -2.556754   -0.659730
H      -0.307943   -4.806508   -0.759740
H      -1.798571   -3.837173   -0.574894
H      -0.582879   -4.111333   -3.090901
H      -1.304358   -2.551353   -2.598746
