17

C      -0.063416    1.623329    0.012733
C       0.028211    0.106738    0.017377
C       1.069150   -0.627992   -0.874559
C       2.468016   -0.254259   -0.340205
C       2.226717   -0.264315    1.130777
C       0.731275   -0.642099    1.185226
C       1.183274   -1.761951    0.194048
N       2.679121   -1.520284    0.441086
H       0.920768    2.074452    0.177263
H      -0.447347    1.994617   -0.943746
H      -0.733595    1.982666    0.801307
H      -0.957775   -0.346899   -0.147462
H       0.932341   -0.788846   -1.942115
H       3.286826    0.255674   -0.832508
H       2.844230    0.237234    1.865605
H       0.260949   -0.816878    2.150893
H       0.785977   -2.771705    0.121962
