18

C       0.050352    1.512824   -0.074509
C       0.097131   -0.015972   -0.038464
C       0.617203   -0.555101    1.306232
C       0.714342   -2.044788    1.328012
N      -0.002751   -2.770587    2.144736
O       0.391826   -4.101421    1.819318
C       1.296512   -3.979807    0.845310
N       1.804154   -5.120343    0.310400
N       1.551117   -2.750334    0.490559
H       1.046430    1.943541    0.077302
H      -0.325094    1.873535   -1.036939
H      -0.604604    1.910121    0.708891
H      -0.903661   -0.424839   -0.222011
H       0.739155   -0.393580   -0.841470
H       1.614536   -0.140949    1.500031
H      -0.035391   -0.238324    2.125298
H       1.755105   -5.948456    0.882183
H       2.652226   -5.002895   -0.220291
