18

O       0.246681    0.595127   -1.078468
C       0.059745    1.186467    0.003412
O       0.710825    1.290943    1.051366
C      -1.294024    1.962369    0.032595
C      -2.358762    1.762601    1.161994
C      -2.859005    3.135228    0.679838
C      -1.389091    3.483393    0.388372
N      -3.343456    2.772102   -0.735099
H      -4.225490    2.261027   -0.715797
H      -3.471425    3.599206   -1.317403
C      -2.144187    1.878236   -1.220169
H      -3.043334    0.909492    1.112855
H      -1.878995    1.817242    2.137988
H      -3.595335    3.772750    1.174977
H      -0.824922    3.687781    1.297032
H      -1.171278    4.231669   -0.380712
H      -1.702277    2.333406   -2.104058
H      -2.519229    0.883658   -1.452301
