18

C      -0.902799    0.518525   -1.019246
C      -0.153909    0.655273   -0.087791
C       0.788244    0.821231    1.023859
N       1.828885    1.846984    0.878835
C       2.298159    2.216145   -0.461233
C       1.492907    3.151943    0.357118
C       0.130077    3.787930    0.066223
O       0.578347    5.032403    0.645710
C       1.859491    4.476457    1.017066
H      -1.576134    0.390905   -1.830945
H       0.233652    1.044780    1.943021
H       1.300578   -0.132787    1.196850
H       3.373534    2.345038   -0.556845
H       1.804967    1.764181   -1.319698
H      -0.145358    3.894284   -0.989332
H      -0.719489    3.361953    0.614002
H       1.994238    4.423676    2.105183
H       2.695231    5.030206    0.571513
