15

C       0.097910   -1.170301    0.034279
C       0.002991    0.027016    0.004857
C      -0.102524    1.458835   -0.028061
N      -1.239811    2.024261    0.010586
C      -1.298386    3.481060    0.039380
C       0.024174    4.133986    0.451080
C       1.150053    3.452069   -0.313327
O       1.131929    2.033491   -0.096935
H       0.170467   -2.229695    0.060608
H      -1.607093    3.831708   -0.955413
H      -2.105071    3.768270    0.722710
H       0.022998    5.208646    0.242903
H       0.188675    4.004529    1.526595
H       1.057254    3.639423   -1.391512
H       2.139763    3.783191    0.008788
