17

C      -0.447915    1.364852    0.005343
N       0.015022   -0.014798    0.057624
C       1.395787   -0.302392   -0.305062
C       0.927767   -0.448651    1.102592
C       1.434241    0.491426    2.189525
N       0.403297    0.673392    3.215679
C       2.712857   -0.029539    2.725611
N       3.689943   -0.442454    3.186321
H       0.346185    2.118336    0.131024
H      -0.911231    1.535527   -0.970956
H      -1.197884    1.521984    0.784412
H       1.564610   -1.177212   -0.926602
H       2.053714    0.540678   -0.519252
H       0.717916   -1.448875    1.481973
H       1.647474    1.472881    1.754327
H       0.173434   -0.224927    3.632772
H       0.756668    1.258316    3.967604
