14

C       0.041743    1.503039   -0.014218
C      -0.046730    0.010960    0.003945
C      -0.226193   -0.842662   -1.039270
O      -0.424978   -0.572996   -2.346422
C       0.110233   -1.422603   -3.296776
O      -0.098180   -1.246710   -4.450933
O      -0.256607   -2.123976   -0.648624
N      -0.075007   -2.156710    0.743894
C       0.037401   -0.899886    1.096502
H       0.992371    1.853960    0.400718
H      -0.037931    1.877464   -1.037441
H      -0.761312    1.960308    0.573312
H       0.716548   -2.223703   -2.850920
H       0.183719   -0.670123    2.143628
