13

O       0.111897    1.384186   -0.195143
C       0.027125    0.001001    0.001769
C      -1.382280   -0.530979    0.044485
N      -2.335531    0.335704    0.082964
O      -3.641163   -0.096239    0.151040
N      -3.985687   -1.420639    0.170620
C      -3.043352   -2.298399    0.134344
C      -1.617943   -1.981895    0.077284
O      -0.726219   -2.811032    0.058957
H      -0.688814    1.788372    0.160682
H       0.560144   -0.507549   -0.810868
H       0.521930   -0.324675    0.933724
H      -3.365718   -3.335632    0.152268
