15

O       0.250679   -0.180103   -0.271179
C      -0.019673    0.982505   -0.157138
C       1.004909    2.094406    0.092085
O       2.267975    1.573612    0.446224
C       3.229875    1.842531   -0.584352
C       2.488494    2.718478   -1.572831
C       1.233799    2.883046   -1.177692
C       4.424905    2.481664   -0.030177
C       5.416517    3.004883    0.400758
H      -1.066857    1.359120   -0.243275
H       0.613931    2.725029    0.908900
H       3.525688    0.889049   -1.049463
H       2.965581    3.134667   -2.449407
H       0.459483    3.453470   -1.673079
H       6.292283    3.463550    0.789260
