19

C      -0.030672    1.561538    0.030609
C      -0.021612    0.032304   -0.006462
C       0.746159   -0.519906   -1.225687
C       0.764980   -1.977267   -1.279537
C       0.758265   -3.183338   -1.298217
C       0.785351   -4.619064   -1.324435
C      -0.042529   -5.366410   -2.318588
N       1.416105   -5.332575   -2.464669
H       0.987229    1.964352    0.078391
H      -0.509772    1.978451   -0.862353
H      -0.576063    1.931697    0.903801
H       0.434364   -0.364843    0.907217
H      -1.047400   -0.351828   -0.031144
H       0.294606   -0.124749   -2.145961
H       1.775585   -0.136320   -1.207820
H       0.981504   -5.098906   -0.368712
H      -0.454087   -6.334072   -2.045370
H      -0.655094   -4.779365   -2.996313
H       1.670732   -4.646906   -3.171882
