12

O      -0.038492   -0.081512   -0.132158
C      -0.002633    1.119498   -0.030408
N      -1.183041    1.863295   -0.092478
N      -1.517584    3.112656    0.302584
C      -0.688699    4.103289    0.276171
N       0.579701    4.224032   -0.242544
C       1.426087    3.277174   -0.389145
C       1.335918    1.863321    0.080439
O       2.322488    1.262135    0.426044
H      -1.993744    1.255081   -0.126096
H      -1.111588    5.038514    0.629124
H       2.381884    3.516104   -0.859218
