19

C       0.070910    1.594752   -0.098128
C       0.022858    0.067013   -0.075181
C       0.860753   -0.552121   -1.200522
O       0.882180   -1.973597   -1.095910
C       1.365304   -2.389714    0.153308
O       0.570567   -1.929114    1.213186
C       0.529446   -0.504827    1.254539
C       1.268486   -3.915426    0.169633
O       2.212531   -4.641915    0.310907
H       1.094610    1.964063    0.032948
H      -0.305419    1.987216   -1.048276
H      -0.541794    2.020953    0.702733
H      -1.011477   -0.272755   -0.208217
H       0.447752   -0.321868   -2.186214
H       1.891879   -0.161036   -1.161214
H       2.415567   -2.073743    0.288953
H       1.536114   -0.110252    1.475092
H      -0.128790   -0.239566    2.086125
H       0.231041   -4.287557    0.036906
