17

O      -0.092230    1.467281   -0.072917
C       0.016788    0.062467   -0.107722
C      -1.352041   -0.596351    0.031321
C      -1.298807   -2.111792    0.045378
O      -2.581447   -2.699739    0.332873
C      -3.501519   -2.037730    1.067260
O      -4.538452   -2.566557    1.356031
C      -3.213914   -0.588963    1.455131
O      -1.879210   -0.161925    1.281216
H      -0.597108    1.677160    0.721925
H       0.462286   -0.203892   -1.071504
H       0.677359   -0.315423    0.689257
H      -2.003873   -0.246389   -0.785978
H      -0.999301   -2.514358   -0.926201
H      -0.587333   -2.455539    0.805196
H      -3.910246    0.033673    0.870207
H      -3.468417   -0.469574    2.510212
