18

C      -0.034484    1.520146   -0.005382
N       1.247363    0.749555    0.048430
C      -0.017130    0.053671    0.006000
C      -0.551771   -1.026757    0.967898
C      -1.800937   -1.088121    0.023237
C      -0.581417   -1.009734   -0.958291
C       0.093605   -2.026090   -0.012289
C       1.286889   -2.851671   -0.035263
O      -0.051589   -3.420292   -0.022672
H      -0.256097    2.084409    0.896411
H      -0.290312    2.029878   -0.931217
H       1.693028    0.753722   -0.866466
H      -0.527241   -1.031679    2.055967
H      -2.352977   -2.028388    0.022183
H      -2.459470   -0.217509    0.039457
H      -0.593617   -0.997818   -2.048039
H       1.837229   -3.000235   -0.963091
H       1.861614   -3.010127    0.875446
