21

C      -0.052751    1.539924   -0.061908
C      -0.023027    0.043576    0.013303
C       0.459426   -1.010126   -0.955751
C       1.289417   -1.688694    0.121164
C       0.490621   -0.858780    1.210328
C       1.288012   -0.241874    2.341555
C      -0.709667   -1.705876    1.581927
C      -1.547137   -1.776229    0.542078
C      -1.041397   -0.909123   -0.556308
H       0.933161    1.976877    0.134910
H      -0.364851    1.868059   -1.059253
H      -0.756318    1.965866    0.663320
H       0.734801   -0.900419   -1.998948
H       1.265488   -2.780356    0.210190
H       2.327551   -1.346497    0.070671
H       2.132060    0.345394    1.964672
H       0.665009    0.418900    2.954724
H       1.694997   -1.018279    2.999605
H      -0.767457   -2.279519    2.500138
H      -2.434771   -2.392477    0.466659
H      -1.695046   -0.565913   -1.351265
