20

C      -0.073272    1.560449    0.023614
C       0.029296    0.038567    0.028283
C       0.768922   -0.558294   -1.197481
C       1.478125   -1.839436   -0.680538
C       1.640267   -1.539849    0.779840
C       2.267187   -1.991991    1.919136
C       1.809134   -1.169662    2.990868
C       0.917715   -0.250823    2.474119
N       0.837321   -0.483360    1.126393
H       0.921578    2.014550   -0.017388
H      -0.644670    1.894985   -0.847843
H      -0.584247    1.930194    0.917838
H      -0.983567   -0.385682    0.095555
H       0.087871   -0.749417   -2.030122
H       1.518529    0.163392   -1.539492
H       0.850969   -2.726775   -0.840772
H       2.424083   -2.022963   -1.198181
H       2.973313   -2.805449    1.985247
H       2.112038   -1.235590    4.025312
H       0.364631    0.543720    2.948205
