13

C      -0.004475    1.539997    0.092431
C       0.015255    0.054867   -0.006066
C       0.001140   -0.802179   -1.094984
N       0.031840   -2.099484   -0.634998
N       0.063610   -2.089076    0.658066
N       0.053902   -0.792885    1.046977
C      -0.037820   -0.459511   -2.465129
C      -0.071183   -0.146585   -3.626920
H       0.887530    1.924667    0.598982
H      -0.035322    1.967235   -0.911709
H      -0.881812    1.898302    0.642104
H       0.074966   -0.575769    2.031140
H      -0.100512    0.115960   -4.655353
