18

N      -0.029025    1.479650    0.045495
C       1.291647    0.801176   -0.034232
C       0.035442    0.010263   -0.025807
C      -0.154257   -0.727245   -1.344072
N       1.018495   -1.656124   -1.469577
C       1.745821   -0.594305   -2.164238
C       1.930389    0.830601   -1.426165
N       0.984098    1.392560   -2.423653
C       0.430101    0.054237   -2.613738
H      -0.209986    1.757816    1.006387
H       1.935037    0.828298    0.839570
H      -0.248241   -0.550092    0.863415
H      -1.127500   -1.212757   -1.449800
H       1.408170   -1.961896   -0.578518
H       2.562758   -0.886623   -2.823987
H       2.925894    1.281422   -1.430656
H       0.343140    2.066774   -2.012391
H      -0.082877   -0.158407   -3.552631
