17

N      -0.632716    1.256991   -0.269011
C      -0.328559    0.033427   -0.246583
O      -1.254708   -0.865952    0.171729
C      -0.858518   -2.242902    0.162005
C      -2.007257   -3.051868    0.754565
C      -2.895470   -3.283230   -0.475024
O      -1.979850   -3.355861   -1.588134
C      -0.797434   -2.767127   -1.269111
N       0.201555   -2.647180   -2.031916
H       0.164377    1.802894   -0.590395
H       0.624587   -0.419561   -0.537613
H       0.098958   -2.368887    0.673060
H      -1.628065   -4.004069    1.136363
H      -2.511874   -2.518180    1.560576
H      -3.458228   -4.217991   -0.447640
H      -3.585758   -2.450142   -0.641417
H       0.004839   -3.033440   -2.957336
