20

C      -0.817997   -0.402024    0.815372
O      -0.251394   -1.568483    0.201998
C       1.047958   -1.459084   -0.158091
O       1.711418   -0.472515    0.036243
C       1.508120   -2.715384   -0.871586
C       1.211726   -2.623217   -2.369903
C       2.082690   -1.655007   -3.143158
C       0.664852   -3.833415   -3.036977
N      -0.201596   -2.665960   -2.787583
H      -0.269832   -0.142564    1.724191
H      -0.783742    0.447617    0.129014
H      -1.849904   -0.661692    1.051210
H       2.583731   -2.820009   -0.706506
H       0.996433   -3.580198   -0.441359
H       3.126505   -1.988306   -3.145952
H       1.735619   -1.581175   -4.176158
H       2.053011   -0.656426   -2.696338
H       0.888099   -4.018974   -4.084410
H       0.521725   -4.731436   -2.440841
H      -0.796219   -2.833571   -1.979260
