23

C      -0.177283    1.683360   -0.189264
C       0.083052    0.197397   -0.044169
C       1.388551   -0.527212   -0.346875
C       2.705063    0.240916   -0.323860
C       2.770447    0.938390    1.060829
C       1.811275    0.153344    1.987003
C       1.181426    0.985766    3.107122
C       0.823808   -0.542435    1.050261
O       0.248277   -1.725421    1.537852
H       0.684852    2.304953    0.054945
H      -0.459467    1.915352   -1.222750
H      -1.006491    2.002525    0.452696
H      -0.767657   -0.399022   -0.370547
H       1.323593   -1.416156   -0.965124
H       3.528572   -0.474085   -0.430363
H       2.803690    0.957011   -1.147438
H       3.788698    0.955724    1.460500
H       2.456699    1.983816    0.988160
H       2.369815   -0.670540    2.451502
H       0.599103    1.822121    2.706204
H       0.512897    0.374453    3.724187
H       1.947612    1.399860    3.771109
H      -0.510787   -1.484446    2.079201
