18

C      -0.087433    1.771807    0.253586
C      -0.057549    0.283105   -0.026611
C       1.217048   -0.369194   -0.466933
C       0.687306   -0.651274    0.933147
C       1.365217   -0.123774    2.081656
N       1.906358    0.311088    3.007831
C      -1.351177   -0.264734   -0.561982
C      -1.568882   -0.509418   -1.994222
O      -1.328293   -1.590529   -1.086054
H       0.840206    2.108452    0.721881
H      -0.226355    2.332982   -0.676464
H      -0.910924    2.028448    0.928921
H       1.155792   -1.199027   -1.160834
H       2.102237    0.250564   -0.548096
H       0.245278   -1.630735    1.080982
H      -2.224793   -0.044783    0.054522
H      -2.575344   -0.464590   -2.405618
H      -0.762692   -0.307803   -2.697311
