14

O      -0.030548    0.128753   -0.747127
C      -0.049062    1.133803   -0.097127
C      -1.309622    1.955407    0.154208
O      -1.282837    2.628127    1.401972
C      -0.186246    3.488201    1.485090
C       0.889554    3.114939    2.473054
C       1.108863    2.911362    0.998548
O       1.088040    1.591748    0.492572
H      -1.449468    2.657496   -0.682368
H      -2.155397    1.267148    0.167412
H      -0.413177    4.536208    1.295931
H       1.442507    3.903895    2.969514
H       0.701468    2.225130    3.062573
H       1.825221    3.529334    0.468042
