15

C       0.131349    0.972513   -0.751775
C      -0.090397   -0.001270    0.414606
O       0.302587    0.585951    1.627506
C      -1.532355   -0.456103    0.486570
N      -2.231164   -0.242055    1.514577
O      -1.938939   -1.072107   -0.682786
C      -2.767340   -2.160890   -0.614895
O      -3.262581   -2.632066   -1.586528
H       1.180004    1.278182   -0.755515
H      -0.107654    0.506156   -1.710390
H      -0.487141    1.864944   -0.620034
H       0.511247   -0.907045    0.227618
H      -0.472810    0.566031    2.207957
H      -3.201462   -0.541314    1.447531
H      -2.878398   -2.540536    0.414384
