18

N       0.020095    1.223143   -0.550643
C       0.020903    0.059734   -0.091071
O       1.105625   -0.761334    0.296311
C       0.162801   -1.610962    1.010257
C      -0.269406   -3.073642    1.225922
C      -1.342120   -2.298568    2.122089
C      -0.179897   -1.331853    2.480995
C      -2.170907   -1.364848    1.168509
C      -0.994785   -1.034538    0.216560
H       0.969691    1.589450   -0.637975
H      -0.608673   -3.638994    0.355464
H       0.383055   -3.678951    1.858159
H      -1.879204   -2.846056    2.895038
H       0.547793   -1.762434    3.171538
H      -0.432968   -0.308098    2.767942
H      -2.989609   -1.866685    0.647994
H      -2.584947   -0.518645    1.721405
H      -1.109621   -1.585944   -0.723120
