23

C       0.095028    1.553985    0.182825
C      -0.279512    0.105585   -0.163359
C       0.551869   -0.490014   -1.310407
C       0.061881    0.015782   -2.666460
C       2.104891   -0.631885   -1.163387
C       1.938975   -1.728602   -0.091968
C       0.960482   -2.014865   -1.265822
C       0.137774   -3.232904   -1.552253
O       2.087474   -1.698724   -2.189327
H       1.129212    1.620846    0.537541
H      -0.001750    2.218353   -0.681302
H      -0.552318    1.945789    0.973435
H      -0.202765   -0.501856    0.742784
H      -1.336741    0.067552   -0.455119
H       0.080418    1.109964   -2.709358
H       0.680875   -0.372164   -3.474924
H      -0.975503   -0.294592   -2.839060
H       2.880794    0.129476   -1.256706
H       2.776722   -2.424934   -0.039126
H       1.548498   -1.473134    0.893311
H      -0.629861   -3.361437   -0.782289
H      -0.358413   -3.144835   -2.523726
H       0.767458   -4.127774   -1.564941
