18

C       0.135646    1.525066   -0.666791
C       0.319571    0.125656   -0.130878
O       1.408178   -0.399672   -0.054152
C      -0.942054   -0.633145    0.303382
C      -1.994862   -0.668255   -0.821817
O      -1.453066   -1.164672   -2.031426
N      -0.540561   -1.971213    0.694707
C      -1.305615   -2.740397    1.515145
O      -2.439448   -2.471122    1.855505
H       1.094516    2.044235   -0.666964
H      -0.229309    1.454106   -1.697887
H      -0.603725    2.089773   -0.091278
H      -1.387577   -0.109847    1.162719
H      -2.847010   -1.261117   -0.469262
H      -2.350145    0.344453   -1.032326
H      -1.161010   -2.067462   -1.861630
H       0.453970   -2.147597    0.616103
H      -0.781714   -3.663992    1.829771
