12

O      -0.010478   -0.039324    0.005703
C      -0.018257    1.159516    0.010765
N      -1.132501    1.992920    0.028423
C      -0.752339    3.324793    0.029093
C       0.597180    3.504371    0.012456
C       1.300391    4.723989    0.008944
C       1.933873    5.748100    0.005421
C       1.202541    2.152652   -0.002070
O       2.352027    1.804439   -0.017587
H      -2.082177    1.659183    0.039410
H      -1.512025    4.094283    0.042404
H       2.493228    6.650645    0.002296
