18

C      -0.100300   -1.307106   -0.042150
C      -0.048479   -0.105232   -0.009001
C      -0.031287    1.339249    0.016904
C      -0.359179    2.058687    1.427669
C       1.149362    2.405854    1.469037
C       2.423398    3.310585    1.374708
N       2.810083    2.069826    0.497319
C       2.178654    1.259658    1.635846
C       1.318085    2.211998   -0.002742
H      -0.129197   -2.368179   -0.072352
H      -0.682446    1.708190   -0.781076
H      -1.022262    2.913204    1.272835
H      -0.756340    1.419520    2.218866
H       2.339138    4.241545    0.808477
H       3.081320    3.417611    2.242349
H       2.777213    1.256381    2.551373
H       1.898481    0.247907    1.346851
H       1.214618    3.054746   -0.689844
