18

C      -0.062284    1.459283   -0.239405
C      -0.041770    0.026889    0.021418
C      -0.011440   -1.157968    0.232551
C      -0.006447   -2.594866    0.490073
C      -1.362376   -3.230909    0.234759
N      -1.630443   -3.686781   -1.126647
C      -1.509851   -4.695695   -0.043964
C      -0.388939   -5.594255   -0.088366
C       0.536883   -6.361534   -0.091042
H       0.791165    1.763572   -0.855547
H      -0.973673    1.754233   -0.771487
H      -0.021215    2.037152    0.690702
H       0.735500   -3.096557   -0.140132
H       0.284866   -2.788362    1.531262
H      -2.182445   -2.775019    0.786837
H      -2.610075   -3.561168   -1.367505
H      -2.431098   -5.150622    0.314803
H       1.356673   -7.036253   -0.106926
