16

C       0.975697    0.402988    0.632056
C      -0.326279    0.327385   -0.134246
O      -1.369570    0.777487    0.285522
C      -0.300085   -0.338784   -1.471963
C      -1.488008   -0.423062   -2.443226
C      -1.083222   -1.902844   -2.682416
O      -1.606633   -2.822619   -3.238010
C       0.120703   -1.793083   -1.765884
N       0.946171   -0.645498   -2.144226
H       1.449008   -0.580759    0.707843
H       1.682831    1.043788    0.095561
H       0.784050    0.808232    1.625845
H      -2.462983   -0.369582   -1.952977
H      -1.467536    0.271409   -3.287853
H       0.551589   -2.549292   -1.119832
H       0.910172   -0.436134   -3.140302
