17

C      -0.005538    1.620662   -0.076174
C       1.479763    1.962637    0.090036
O       1.810646    1.810607    1.497646
C       2.139034    0.431456    1.252493
C       0.913618   -0.515233    1.205940
O       1.396723   -1.514257    0.255647
C       1.228573   -0.444999   -0.723727
C       0.023041    0.102884    0.071119
C       2.241292    0.643505   -0.279571
H      -0.606618    2.143818    0.672188
H      -0.377412    1.890258   -1.072804
H       1.802826    2.929611   -0.300176
H       2.973137    0.066473    1.853373
H       0.515699   -0.927557    2.132335
H       1.194300   -0.782676   -1.758612
H      -0.908977   -0.442286   -0.070919
H       3.215060    0.701353   -0.757136
