19

C       0.006410    1.546636    0.049065
C       0.007378    0.017881    0.113171
C      -1.400364   -0.589276   -0.048787
C      -1.418953   -2.085445    0.019519
N      -1.532235   -2.836975   -1.078534
N      -1.480480   -4.103104   -0.639820
C      -1.343454   -4.204424    0.710831
C      -1.297955   -2.906031    1.169469
O      -1.157667   -2.535421    2.474935
H       1.017006    1.950943    0.162032
H      -0.389642    1.900806   -0.909097
H      -0.615533    1.978958    0.841437
H       0.655076   -0.391575   -0.670451
H       0.441105   -0.314165    1.065726
H      -2.064281   -0.168593    0.721972
H      -1.822473   -0.285796   -1.012323
H      -1.555883   -4.852890   -1.304362
H      -1.291917   -5.149147    1.225534
H      -1.260465   -1.580906    2.533439
