18

C      -0.269207    1.311776    0.451954
O      -0.169652   -0.087691    0.561694
C       1.159223   -0.553485    0.493220
C       1.114147   -2.063407    0.631883
O       2.415567   -2.684775    0.435419
C       2.252817   -3.425552    1.651597
C       2.210360   -2.509369    2.829499
C       0.959128   -2.728165    1.999416
H       0.129991    1.675314   -0.508205
H      -1.328988    1.570658    0.514688
H       0.271041    1.824984    1.263170
H       1.625240   -0.293984   -0.472887
H       1.777730   -0.104825    1.286701
H       0.395317   -2.466928   -0.091827
H       2.559745   -4.464620    1.656104
H       2.185039   -2.995271    3.800126
H       2.756766   -1.570963    2.801356
H       0.036391   -3.111724    2.410739
