19

C      -0.097417    1.583422    0.006041
C       0.021590    0.059560   -0.015294
C       0.839715   -0.512579   -1.208199
C       1.607640   -1.692388   -0.613723
C       1.202283   -1.960477    0.788820
C       2.629672   -1.414658    0.502443
C       2.247134   -0.178522    1.244380
O       2.875486    0.662658    1.828582
C       0.738357   -0.538748    1.214429
H       0.887711    2.054383    0.085605
H      -0.578008    1.952521   -0.905877
H      -0.696050    1.921477    0.858224
H      -0.986116   -0.375003   -0.048006
H       0.185767   -0.841625   -2.021628
H       1.520319    0.238480   -1.624467
H       1.891418   -2.523642   -1.250564
H       0.945177   -2.906322    1.242967
H       3.586801   -1.921582    0.523902
H       0.221612   -0.407525    2.165538
