23

C       1.753154    2.573106   -0.018006
C       0.727560    1.508197    0.403149
C       0.020402    0.874191   -0.807444
O      -0.769962    1.804465   -1.531643
C       1.359056    0.452127    1.306987
C       2.428571   -0.432253    0.692022
O       1.695080    0.927815    2.625418
C       0.659597   -0.057021    2.507359
C      -0.724150    0.317228    2.975163
H       2.513992    2.168815   -0.695314
H       1.259307    3.407044   -0.527400
H       2.261822    2.980043    0.860046
H      -0.048129    2.018434    0.980871
H       0.753532    0.385193   -1.467947
H      -0.675010    0.099719   -0.465641
H      -0.175457    2.417155   -1.974444
H       3.240172    0.164293    0.264264
H       2.859517   -1.082382    1.457032
H       2.018729   -1.062242   -0.104383
H       0.973720   -1.048083    2.846510
H      -1.030696    1.305717    2.629963
H      -1.456244   -0.418907    2.625313
H      -0.754864    0.320971    4.070036
