17

C       0.020884    1.466524   -0.031070
C       0.003749    0.012723    0.027512
C      -0.023053   -1.190420    0.074281
C      -0.020690   -2.621968    0.113366
C      -0.594758   -3.377496    1.301615
C      -1.332162   -3.400706   -0.021308
O      -2.473078   -2.604048   -0.147411
C      -1.329919   -4.611303   -0.801758
C      -1.358179   -5.629684   -1.441513
H       0.746909    1.825445   -0.769103
H      -0.960953    1.861893   -0.314520
H       0.288556    1.905211    0.936860
H       0.823594   -3.098947   -0.375122
H      -0.085733   -4.275884    1.630041
H      -1.054460   -2.776335    2.077050
H      -3.221540   -3.113939    0.182886
H      -1.377648   -6.521527   -2.017607
