16

C      -0.039373    1.347503    0.013070
O       0.065384   -0.079179    0.029996
C       0.685364   -0.589815    1.086996
N       1.173996    0.067997    2.065674
C       1.772585   -0.916497    2.975241
C       1.420187   -2.283034    2.376379
C      -0.009666   -2.601270    2.163727
N       0.796119   -2.014329    1.057468
H       0.953530    1.804663    0.035770
H      -0.556670    1.595398   -0.914095
H      -0.606592    1.701936    0.878217
H       2.860293   -0.778548    3.013000
H       1.397220   -0.780019    3.996342
H       2.149371   -3.085854    2.402656
H      -0.319161   -3.627020    1.991728
H      -0.756340   -1.961717    2.627115
