16

O      -0.515575    0.377005   -0.459987
C      -0.180234    1.497971   -0.188171
C       1.262318    1.897696    0.119710
C       1.829295    2.606068   -1.095418
C       1.955479    3.918681   -0.910237
C       1.544398    4.355160    0.472756
C       1.409305    2.994602    1.228205
C       0.353409    2.985997    2.237279
N      -0.484166    2.986879    3.033992
H      -0.903950    2.342832   -0.195014
H       1.801091    0.981639    0.376063
H       2.036127    2.068672   -2.012923
H       2.299986    4.622961   -1.658685
H       2.275233    5.009451    0.958060
H       0.596147    4.905593    0.455679
H       2.353900    2.796062    1.744133
