23

C      -0.090533    1.488025   -0.068783
C       0.035043   -0.036083    0.013738
C       0.755462   -0.552440    1.275758
C       0.022267   -0.192175    2.577216
C       0.959992   -2.044486    1.189779
C       1.570659   -2.912309    0.050160
C       0.904873   -3.837305    1.090033
C       1.560930   -3.033034    2.231568
O      -0.254720   -2.920065    1.136035
H       0.890512    1.972305    0.001131
H      -0.539723    1.787643   -1.020816
H      -0.718762    1.894096    0.729556
H      -0.957313   -0.499682   -0.036102
H       0.581099   -0.393362   -0.867436
H       1.761135   -0.105991    1.304265
H      -0.967307   -0.659043    2.599367
H       0.577464   -0.544094    3.451885
H      -0.102677    0.888682    2.678898
H       1.057163   -2.853145   -0.909962
H       2.659517   -2.940026   -0.046739
H       0.693311   -4.904673    1.029498
H       2.648829   -3.071949    2.335065
H       1.038035   -3.077978    3.187365
