21

C       0.148614    1.547857   -0.143265
C       0.053885    0.051470    0.065010
O       0.910032   -0.691921   -0.835261
C       1.407393   -1.529513    0.231246
C       2.927095   -1.412988    0.415464
C       3.056815   -0.300866    1.431733
C       1.878315    0.109860    1.901829
C       0.713215   -0.637948    1.303087
C      -0.229309   -1.254758    2.327943
H       1.174053    1.897333    0.001072
H      -0.164478    1.802340   -1.160991
H      -0.509097    2.077006    0.555430
H      -0.990871   -0.277043   -0.051864
H       1.048167   -2.560458    0.128909
H       3.381815   -2.347187    0.771643
H       3.400614   -1.172394   -0.543872
H       4.018351    0.098616    1.737159
H       1.742777    0.891071    2.643066
H      -0.726992   -0.478790    2.921529
H      -1.007767   -1.852269    1.841983
H       0.313372   -1.903215    3.023795
