15

O      -0.247792    1.456975    0.012231
C       0.003017    0.061869    0.002214
C      -1.355364   -0.626095    0.011705
C      -1.241089   -2.126483    0.002107
O      -0.220460   -2.760468   -0.011814
O      -2.493815   -2.691433    0.011541
C      -2.586095   -4.061912    0.004598
N      -3.734935   -4.572855    0.013542
H       0.598110    1.913936    0.007541
H       0.567383   -0.247152   -0.889321
H       0.584625   -0.256757    0.879165
H      -1.933475   -0.323082    0.892042
H      -1.950562   -0.313250   -0.853690
H      -1.613110   -4.552975   -0.007975
H      -3.659505   -5.589158    0.007161
