23

C      -0.160203    1.408245   -0.403447
C       0.149885   -0.068303   -0.165985
C       1.329776   -0.749291   -1.003177
C       2.086711   -0.853802    0.332357
C       2.771569   -1.573209    1.535820
C       1.989846   -0.298698    2.121959
C       2.611073    0.484239    0.960496
C       0.800144   -0.704500    1.165739
C      -0.053537   -1.887019    1.618960
H       0.726826    2.039524   -0.484834
H      -0.720149    1.524057   -1.339083
H      -0.784002    1.808070    0.403336
H      -0.787343   -0.608578   -0.328494
H       1.017192   -1.704807   -1.433209
H       1.800957   -0.146066   -1.785114
H       2.401604   -2.563089    1.803649
H       3.862549   -1.527766    1.616191
H       1.963408   -0.007529    3.178199
H       3.698999    0.597609    0.970212
H       2.128454    1.416812    0.681745
H      -1.024831   -1.515301    1.968743
H      -0.259351   -2.597030    0.808168
H       0.390893   -2.444867    2.447172
