22

C       0.334832    1.380865    0.217022
C      -0.015940   -0.105989    0.017195
C      -1.537745   -0.266244   -0.071658
C       0.701533   -0.680584   -1.229797
C       2.140649   -1.009405   -0.773850
C       2.076799   -1.183993    0.773052
O       2.850725   -0.203459    1.467425
C       0.598809   -0.972113    1.143340
H       1.409690    1.529165    0.341235
H      -0.006640    1.978943   -0.635620
H      -0.153679    1.773581    1.115866
H      -1.947564    0.308769   -0.909991
H      -1.820362   -1.315154   -0.215954
H      -2.028035    0.090281    0.841250
H       0.192712   -1.600328   -1.543282
H       0.673112    0.004335   -2.083264
H       2.534163   -1.899412   -1.273813
H       2.824912   -0.185344   -1.000422
H       2.414843   -2.185681    1.073690
H       3.766095   -0.298140    1.185376
H       0.508122   -0.527296    2.138244
H       0.092903   -1.944760    1.167267
