20

C      -0.469783    1.452491   -0.064427
N       0.105713    0.131927    0.006833
C       1.060913   -0.393664   -0.991221
C       1.846742   -1.078570    0.170326
O       2.088556   -2.448225    0.124699
C       3.026968   -0.325607    0.819551
C       2.867491    1.162095    0.766861
C       2.062009    0.393856    1.778451
C       0.864805   -0.381399    1.154503
H       0.260096    2.280500   -0.047402
H      -1.062450    1.548206   -0.981413
H      -1.150266    1.595791    0.782262
H       0.601797   -1.096401   -1.702548
H       1.622054    0.353193   -1.570474
H       1.268786   -2.891713   -0.119493
H       3.972709   -0.809746    1.028983
H       3.698104    1.720975    1.187530
H       2.402494    1.655254   -0.078513
H       2.178290    0.572828    2.841073
H       0.278453   -0.938659    1.892501
