16

N       0.069898   -1.086351   -0.704885
C       0.029417    0.019139   -0.371426
C      -0.005937    1.415553    0.063395
C       1.373091    2.049530    0.046887
C       1.883442    2.810672   -1.163243
O       0.908958    3.192545   -2.108067
C       0.373999    4.410931   -1.618836
O       0.400826    4.322871   -0.202819
C       1.546361    3.555243    0.094082
H      -0.680416    1.970681   -0.592635
H      -0.432417    1.456138    1.071905
H       2.137970    1.492968    0.582011
H       2.881605    2.661242   -1.558700
H       0.982586    5.263868   -1.961564
H      -0.661119    4.510822   -1.954548
H       2.263057    4.028507    0.756130
