14

C       0.003136    1.462568    0.025465
N      -0.007834    0.011074    0.016780
C      -0.112178   -0.802947   -1.086549
N      -0.093379   -2.071281   -0.779966
C       0.029447   -2.105668    0.595445
C       0.092597   -3.329405    1.395094
O       0.046875   -4.459255    0.970519
C       0.083198   -0.819406    1.097153
H       0.937951    1.841726    0.447945
H      -0.086641    1.821200   -1.001269
H      -0.835979    1.854216    0.607390
H      -0.198383   -0.387957   -2.081064
H       0.191707   -3.127242    2.487994
H       0.175801   -0.440865    2.102809
