19

C      -0.320619    1.384206   -0.633547
O      -0.353990   -0.045729   -0.549371
C      -0.979857   -0.546496    0.537244
O      -1.463609    0.145079    1.401423
C      -1.030079   -2.052926    0.485705
C      -1.377418   -2.816388    1.802922
C      -2.615547   -3.413103    1.118007
C      -3.524589   -2.315636    0.644123
C      -2.301205   -2.648171   -0.166938
H       0.213963    1.615729   -1.554992
H      -1.333868    1.793036   -0.666026
H       0.199715    1.809890    0.228226
H      -0.126020   -2.431172    0.006467
H      -0.614536   -3.557146    2.050294
H      -1.567924   -2.186568    2.675096
H      -2.956804   -4.435013    1.225983
H      -4.459228   -2.646518    0.202713
H      -3.587579   -1.378010    1.188862
H      -2.360363   -2.969737   -1.199221
