15

O       0.026722    0.026035    0.202486
C       0.055571    1.227554    0.065015
N       1.190645    1.947163   -0.146923
C       1.494042    3.368988   -0.106311
C       2.210919    3.719001    1.166580
C       2.972407    3.041160    0.055280
C       2.601767    1.539561   -0.026447
C       2.959783    0.712611    1.128303
N       3.291960    0.097538    2.047876
H      -0.843522    1.876389    0.055815
H       0.998968    4.069867   -0.765876
H       2.448968    4.770606    1.290321
H       1.983086    3.187771    2.085889
H       3.830709    3.473863   -0.436285
H       2.961402    1.058340   -0.941407
