18

C       0.056968    1.528608    0.010578
C       0.022797    0.031090   -0.002104
C       0.104741   -0.803093   -1.085144
O       0.326998   -0.679473   -2.425185
C       0.117764   -1.991754   -2.980883
C       0.314083   -2.990564   -1.809315
N       0.014141   -2.109797   -0.701659
C      -0.088792   -2.166100    0.675151
C      -0.104768   -0.865367    1.119658
H       0.903688    1.914092    0.591414
H       0.149032    1.923113   -1.005262
H      -0.852894    1.956082    0.449061
H      -0.905643   -2.054847   -3.370610
H       0.825848   -2.135114   -3.798493
H      -0.373614   -3.838024   -1.875788
H       1.341394   -3.374374   -1.755991
H      -0.185449   -3.102914    1.197939
H      -0.222484   -0.560347    2.149659
