19

C       0.260759    0.966152   -0.887950
C      -0.114895   -0.221881   -0.007404
C       0.460525   -0.133750    1.398682
O      -1.551903   -0.282090    0.141373
C      -2.233638   -0.935819   -0.803968
N      -3.497287   -0.927546   -0.790696
C      -4.230599   -1.668944   -1.795864
C      -3.434927   -2.383796   -2.812793
N      -2.768343   -2.925363   -3.586657
H       1.347490    1.027661   -1.000386
H      -0.178789    0.872365   -1.885481
H      -0.096724    1.898405   -0.440361
H       0.219581   -1.154541   -0.482465
H       0.109470    0.774142    1.898154
H       0.154549   -0.996053    1.996252
H       1.553099   -0.106356    1.357882
H      -1.614905   -1.464416   -1.541802
H      -4.877257   -2.402221   -1.297471
H      -4.907764   -0.982609   -2.319701
