23

C      -0.233320    1.414863   -0.290402
C      -0.299330   -0.072211    0.078432
C       0.709525   -0.499019    1.173957
C       0.131545   -0.340251    2.583645
O      -0.301057    0.999305    2.773739
C       1.202387   -1.950024    1.006314
O       0.124611   -2.889679    0.879008
C       2.188043   -2.157241   -0.148608
O       2.554997   -3.516819   -0.249127
H       0.756561    1.674919   -0.681701
H      -0.969640    1.658262   -1.063212
H      -0.426610    2.036639    0.584857
H      -1.315545   -0.316839    0.412428
H      -0.126547   -0.657558   -0.834531
H       1.593767    0.149639    1.102404
H      -0.701647   -1.049444    2.703721
H       0.902914   -0.609917    3.322689
H      -0.745595    1.053717    3.624413
H       1.714921   -2.264660    1.923665
H      -0.428997   -2.600019    0.144218
H       1.749773   -1.792574   -1.094192
H       3.101081   -1.578397    0.031169
H       1.742509   -4.010692   -0.075713
