15

O       0.091922   -0.053877    0.001634
C       0.084076    1.150225   -0.039269
C       1.311757    2.016687   -0.024423
C       1.267422    3.059779   -1.151677
C       0.566011    4.052756   -0.298831
C       1.132898    3.246133    0.931124
C       2.430015    4.030421    0.677114
N       1.968119    4.317681   -0.719047
H      -0.873146    1.719928   -0.091701
H       2.205585    1.398991    0.097889
H       1.200220    2.888661   -2.217384
H      -0.263139    4.726974   -0.462601
H       0.692110    3.119477    1.918011
H       2.474208    4.974913    1.224818
H       3.385961    3.501377    0.759461
