16

C      -0.147300    1.355944    0.044706
N      -0.107712   -0.092430   -0.053509
C       0.569923   -0.644138   -0.999241
C       1.349836    0.005110   -2.044346
N       2.052322   -0.567985   -2.967185
O       2.076112   -1.934556   -2.979960
C       1.368967   -2.649157   -2.060207
C       0.612105   -2.099160   -1.082404
N      -0.156742   -2.793471   -0.177591
H       0.851111    1.799948    0.173607
H      -0.604702    1.824064   -0.839427
H      -0.747877    1.637959    0.913015
H       1.386793    1.087826   -2.099454
H       1.494724   -3.711050   -2.228976
H       0.136027   -3.725351    0.069293
H      -0.441851   -2.206347    0.596980
