17

C       0.026318    1.340324    0.317646
O      -0.024855    0.024990   -0.235673
C      -1.261561   -0.569426   -0.152076
C      -1.767405   -1.170799    1.148690
C      -1.434777   -2.057188   -0.022048
C      -2.595335   -2.415839   -0.930414
O      -3.171953   -1.169176   -1.368997
C      -2.356127   -0.113509   -1.084473
O      -2.533332    0.979563   -1.540630
H       1.055482    1.683009    0.195933
H      -0.655012    2.014450   -0.208792
H      -0.226138    1.326511    1.386757
H      -1.047049   -1.162630    1.959020
H      -2.802773   -1.030587    1.443743
H      -0.576198   -2.713945    0.031537
H      -2.264148   -2.970879   -1.814623
H      -3.382167   -2.986651   -0.428353
