15

C       0.001055    1.490519   -0.073282
N       1.343480    2.047485    0.165260
C       2.359484    1.301629    0.297134
N       2.425009   -0.100080    0.196402
C       1.166017   -0.693860    0.137135
C      -0.001805   -0.005913   -0.003986
N      -1.058510   -0.885755   -0.097425
C      -0.526770   -2.080956   -0.014856
N       0.844215   -2.027132    0.123578
H      -0.683808    1.936037    0.660901
H      -0.347514    1.854173   -1.051395
H       3.332515    1.755634    0.485973
H       3.150956   -0.543837    0.741994
H      -1.056392   -3.020758   -0.038563
H       1.474062   -2.808932    0.185340
