20

C      -1.834897    0.693066   -0.588726
N      -0.796100   -0.329326   -0.480708
C       0.371150   -0.325999   -1.328196
C       0.661211    0.694412   -2.407323
C      -0.051587    0.357384   -3.716012
O       0.388733    1.290141   -4.688850
C       0.494843   -0.023997    0.159387
C       0.890044    1.327800    0.631873
O       0.523477    2.391303    0.182223
H      -1.473796    1.707595   -0.777754
H      -2.518408    0.390519   -1.388134
H      -2.399252    0.700838    0.348645
H       0.692233   -1.335434   -1.592660
H       0.394694    1.703250   -2.089799
H       1.740248    0.697978   -2.603561
H       0.187717   -0.676625   -4.015760
H      -1.142709    0.409497   -3.575557
H      -0.071851    1.107135   -5.512827
H       0.861410   -0.820198    0.805505
H       1.591934    1.295466    1.495550
