20

C      -0.085411    1.516374    0.053710
C       0.112649    0.033610    0.002099
N      -0.825566   -0.888860    0.694585
C       0.634768   -0.947963    1.000450
C       1.305750   -1.786643   -0.103791
C       0.454604   -2.924048   -0.779487
O      -0.477268   -3.611749    0.002099
C      -0.074334   -1.886224   -1.835269
C       0.764212   -0.769008   -1.159127
H       0.823759    2.043079   -0.254807
H      -0.896168    1.831166   -0.614256
H      -0.337080    1.847861    1.067617
H      -1.266976   -0.358686    1.444779
H       0.969746   -0.807731    2.021915
H       2.373004   -1.957795    0.037727
H       1.096384   -3.682147   -1.238011
H      -1.038427   -2.917752    0.381245
H       0.235900   -2.106938   -2.859953
H      -1.156421   -1.742987   -1.812326
H       1.445898   -0.182513   -1.775316
