18

C       0.194213    1.755836    0.379735
C       0.064581    0.250553    0.414845
C       1.097368   -0.732003   -0.174586
C       2.465852   -0.274121    0.196841
N       3.554890   -0.123784   -0.403478
O       2.160815   -0.111190    1.554727
C       0.830243   -0.655475    1.316412
C       0.332285   -1.651994    2.326404
O      -0.955334   -2.141305    2.000259
H       1.199931    2.072998    0.662765
H      -0.018980    2.140648   -0.622129
H      -0.512854    2.219683    1.075936
H      -0.936860   -0.131547    0.223188
H       0.844976   -1.479387   -0.912196
H       4.291842    0.173266    0.238462
H       1.002594   -2.517377    2.348170
H       0.361983   -1.193145    3.326623
H      -1.596206   -1.454977    2.210557
