18

O       0.034361    1.493963    0.102246
C       0.006064    0.079698   -0.019581
C       0.634416   -0.617267    1.194861
O      -0.430077   -0.708283    2.136295
C      -1.556272   -1.158228    1.389548
C      -1.416232   -0.505748    0.009046
C      -2.549244    0.224219   -0.659978
C      -2.066615   -1.092279   -1.214789
H      -0.416523    1.713302    0.926160
H       0.534393   -0.141511   -0.950539
H       1.005527   -1.620099    0.923850
H       1.446173   -0.038421    1.639905
H      -1.543797   -2.258150    1.309351
H      -2.459350   -0.861602    1.931042
H      -3.510450    0.244340   -0.155569
H      -2.301267    1.133563   -1.196094
H      -1.510340   -1.084857   -2.146704
H      -2.697645   -1.966337   -1.081511
