20

C      -0.290963    1.483749   -0.084423
C       0.012260    0.006140    0.070520
O       0.734080   -0.443145   -1.110099
C       1.571814   -1.459381   -0.787909
O       2.295875   -1.990444   -1.581764
C       1.436818   -1.767281    0.712198
N       2.621621   -2.300662    1.360602
C       0.890476   -0.434699    1.265301
C       2.003287    0.551954    1.632945
H       0.626257    2.069446   -0.178856
H      -0.898839    1.651904   -0.977200
H      -0.849750    1.845712    0.784478
H      -0.931524   -0.556029    0.100079
H       0.642855   -2.522736    0.796742
H       2.831428   -3.207825    0.953167
H       3.424370   -1.720331    1.132390
H       0.261229   -0.605728    2.143398
H       2.638321    0.794404    0.773033
H       1.590195    1.489063    2.014852
H       2.636554    0.123470    2.414083
