15

C      -0.018554    1.511637    0.023991
N       1.303086    2.179461   -0.102090
C       2.211803    1.419356   -0.823512
C       2.101230    0.074897   -1.117390
C       1.010057   -0.689438   -0.552521
C       0.025815   -0.007626    0.051856
N       3.184921   -0.299928   -1.855285
N       3.961246    0.728341   -2.029227
N       3.370067    1.792632   -1.402617
H      -0.499378    1.902741    0.924481
H      -0.641491    1.839624   -0.822799
H       1.668185    2.508195    0.784402
H       1.037735   -1.772752   -0.580077
H      -0.798498   -0.517248    0.539586
H       3.810096    2.697775   -1.439630
