18

C      -0.694106    0.610877   -0.565430
C      -0.358564   -0.695114    0.169761
C       0.821226   -0.624186    1.131166
C       0.617272    0.126264    2.449960
C       0.436301    1.573031    2.316854
N       0.293328    2.716664    2.232629
C       1.764635   -1.774893    1.165378
N       2.180148   -0.483028    0.590997
H       0.174432    0.994027   -1.111123
H      -1.493649    0.436119   -1.291596
H      -1.024448    1.396902    0.116155
H      -1.242070   -1.046160    0.718977
H      -0.136773   -1.473465   -0.570726
H      -0.249714   -0.284133    2.981450
H       1.492640   -0.035904    3.086203
H       2.270034   -2.048166    2.088218
H       1.567611   -2.609360    0.497688
H       2.160539   -0.525245   -0.425034
