17

O       0.197552    1.320760   -0.119143
C       0.041992   -0.077082   -0.032467
C      -1.444448   -0.508458    0.072694
C      -2.173175   -0.025575   -1.098195
C      -2.715948    0.382268   -2.092363
C      -1.553766   -2.020707    0.262396
C      -2.776781   -2.776833   -0.090848
N      -1.540423   -2.944799   -0.879302
H      -0.272352    1.613287   -0.908924
H       0.505761   -0.599438   -0.882713
H       0.562814   -0.390650    0.877497
H      -1.855835   -0.016914    0.965254
H      -3.222697    0.745200   -2.952923
H      -0.963087   -2.372977    1.106471
H      -3.067340   -3.641492    0.498669
H      -3.599538   -2.226139   -0.537903
H      -1.630629   -2.410384   -1.742248
