21

C       0.039468    1.551444   -0.006268
C      -0.037263    0.042480   -0.050831
C       0.294171   -0.723303   -1.336637
C      -0.593023   -1.889173   -0.777829
C       0.327927   -2.736225    0.062071
C       0.917419   -2.085859    1.067471
C       0.389533   -0.696498    1.311087
C      -1.142821   -0.873768    1.610051
C      -1.355261   -0.792789    0.098762
H       1.081417    1.891033   -0.059494
H      -0.499573    2.001294   -0.847658
H      -0.387570    1.954952    0.918800
H      -0.187511   -0.225489   -2.185954
H       1.332425   -0.960594   -1.587217
H      -1.194785   -2.456236   -1.488397
H       0.542491   -3.764692   -0.207910
H       1.651152   -2.527861    1.733151
H       0.983457   -0.108567    2.012686
H      -1.437722   -1.771700    2.159362
H      -1.567868    0.011175    2.093903
H      -2.312827   -0.475221   -0.319772
