16

C       0.012017    1.556729    0.010533
C      -0.033175    0.058421    0.020215
C      -1.171223   -0.679737   -0.000385
N      -2.482852   -0.219634    0.055871
N      -1.062384   -2.056292   -0.028950
N       0.107098   -2.741094   -0.008525
N       1.188669   -2.102450    0.018398
C       1.225431   -0.669926    0.056538
N       2.355543   -0.065795    0.109019
H       0.828595    1.886947   -0.637186
H      -0.920254    2.010330   -0.341627
H       0.231100    1.956971    1.007515
H      -2.554932    0.786729    0.015972
H      -3.104513   -0.649639   -0.618611
H      -1.870793   -2.643795    0.099268
H       3.100211   -0.765547    0.104995
