19

C      -0.059277    1.552015    0.067175
C       1.397201    1.958618   -0.014974
C       2.181205    0.935499   -0.376122
C       3.526973    0.651699    0.227533
C       3.175157   -0.129395    1.500949
C       1.988314   -0.727404    1.673071
C       0.999569   -0.918694    0.564908
C       0.013596    0.045599   -0.165123
C       1.363255   -0.273799   -0.741637
H      -0.465692    1.817314    1.052283
H      -0.714300    2.030533   -0.675849
H       1.763895    2.878485    0.430219
H       4.197373    0.070199   -0.419186
H       4.058305    1.570492    0.499642
H       3.906393   -0.124524    2.305262
H       1.769520   -1.211848    2.621687
H       0.618552   -1.937976    0.517759
H      -0.870682   -0.459165   -0.539959
H       1.555531   -0.839997   -1.647849
