18

O       0.073105    1.362741   -0.358882
C       0.080281    0.003440    0.049087
C      -1.303787   -0.513112    0.275059
C      -2.303572   -0.175467    1.400990
C      -2.889391   -1.597811    1.191608
C      -3.321757   -2.534884    2.249518
N      -4.267652   -2.058108    1.216847
C      -1.913903   -1.840517    0.056756
O      -2.101001   -0.778764   -0.894008
H      -0.440615    1.407410   -1.173147
H       0.585275   -0.641438   -0.685403
H       0.653489   -0.030743    0.981387
H      -1.842724   -0.036886    2.382399
H      -2.964068    0.665156    1.175567
H      -3.077719   -3.592340    2.186850
H      -3.405186   -2.149064    3.262814
H      -4.873068   -1.334811    1.597530
H      -1.497666   -2.771663   -0.311075
