17

O       0.073026    0.051092    0.740335
C       0.083985    1.186929    0.337565
C       1.325785    1.889192   -0.185350
C       1.709218    3.089006    0.723829
C       2.729014    2.470120    1.689125
C       3.479610    1.476416    0.770016
N       2.485182    0.995614   -0.203603
C       4.603202    2.143586    0.079889
N       5.480431    2.686444   -0.440833
H      -0.841164    1.804218    0.320724
H       1.074103    2.251055   -1.193487
H       2.177865    3.872338    0.122243
H       0.845721    3.529697    1.229289
H       3.383995    3.205413    2.159659
H       2.223219    1.900600    2.474942
H       3.897996    0.636244    1.332007
H       2.176338    0.060935    0.045483
