17

C       0.052294    1.510708    0.174539
O       1.506370    1.441216   -0.061599
C       1.290038    0.236367   -0.891316
C       1.362095   -1.261178   -0.508228
C       0.727362   -0.960596    0.876692
C      -0.224988   -2.095095    1.188093
C      -0.821458   -2.364978    0.023478
C      -0.209995   -1.370751   -0.939968
C       0.000892    0.008124   -0.169529
H      -0.185826    1.806223    1.200419
H      -0.426771    2.184458   -0.546315
H       1.315528    0.501892   -1.951807
H       2.120164   -2.025753   -0.716022
H       1.341766   -0.517883    1.657238
H      -0.377986   -2.547803    2.157843
H      -1.583261   -3.093973   -0.213441
H      -0.484028   -1.366543   -1.994581
