15

O       0.062478    1.419227   -0.057100
C      -0.008310    0.049226   -0.016674
C       0.393159   -0.746565   -1.262013
N      -0.516414   -1.860416   -0.827392
C      -1.287180   -0.921770    0.015356
C      -0.370997   -1.888365    0.685320
C       0.600951   -0.794507    1.134225
C      -0.669234   -3.108637    1.361968
N      -0.897212   -4.078748    1.948971
H      -0.075947    1.775958    0.826968
H      -0.012902   -0.323013   -2.182850
H       1.446362   -1.015036   -1.392397
H      -2.365311   -0.827977    0.013946
H       1.675544   -0.997533    1.103585
H       0.313008   -0.416721    2.119591
