14

N       0.004176    1.333627   -0.127266
C      -0.065067   -0.024848   -0.046688
C      -1.242443   -0.730672    0.018575
O      -2.434254   -0.025821    0.118054
C      -1.162763   -2.134654    0.070935
C       0.036978   -2.790552    0.031210
C       1.274368   -2.073077   -0.043661
O       2.405068   -2.471649   -0.083055
O       1.116377   -0.636315   -0.065568
H       0.884222    1.750379    0.134126
H      -0.830294    1.818897    0.164523
H      -2.890682   -0.054864   -0.730466
H      -2.090466   -2.694887    0.147252
H       0.109243   -3.868811    0.066553
