12

O      -0.090051   -0.007701   -0.002452
C       0.006506    1.190102    0.006122
C       1.310882    1.943012   -0.002029
N       2.450006    1.245693   -0.020061
C       3.571342    1.963950   -0.026247
C       3.564287    3.356966   -0.014609
C       2.318866    3.974279    0.003997
N       1.183370    3.274529    0.010461
H      -0.870699    1.869438    0.021311
H       4.505764    1.407302   -0.041117
H       4.483264    3.930625   -0.019761
H       2.225930    5.057798    0.013957
