19

C      -0.121449    1.593498   -0.113077
C      -0.030611    0.076429   -0.018437
C      -1.415666   -0.555731    0.279725
C      -1.322316   -0.812446    1.788103
C      -0.063591   -0.830559    2.253845
C       0.812328   -0.626877    1.071277
C       2.134279   -0.155299    0.430553
C       1.164624   -0.684048   -0.690052
O       0.900915   -1.843902    0.154735
H       0.847411    2.084533   -0.223554
H      -0.728846    1.872628   -0.981710
H      -0.613171    2.007517    0.774746
H      -2.252954    0.098462    0.017014
H      -1.558312   -1.508815   -0.237747
H      -2.202444   -1.016710    2.389728
H       0.248921   -1.043453    3.267434
H       2.394111    0.902809    0.483533
H       2.992154   -0.806182    0.599105
H       1.392150   -0.865918   -1.742713
