21

C       0.066335    1.503249   -0.097266
C       0.011678   -0.012762    0.113780
O       0.723069   -0.395803    1.291042
C      -1.406022   -0.529201    0.117818
C      -2.434111   -0.258288    1.230994
C      -2.963541   -1.719027    1.089847
C      -1.947395   -1.975540   -0.027259
C      -2.112050   -0.961135   -1.123579
O      -3.343806   -0.385487   -1.461974
H       1.103345    1.849963   -0.087994
H      -0.393682    1.784838   -1.049319
H      -0.477571    2.025089    0.699904
H       0.555215   -0.506651   -0.701252
H       0.374097    0.122838    2.023664
H      -1.964289   -0.090758    2.203752
H      -3.148300    0.544296    1.034463
H      -2.770610   -2.319386    1.980641
H      -4.016010   -1.825429    0.811254
H      -1.398038   -2.897389   -0.184012
H      -1.446752   -1.120270   -1.974523
H      -3.881152   -1.062564   -1.886599
