15

C      -0.000542    1.396496    0.032616
O       0.000172   -0.010935   -0.003416
C       0.659822   -0.585446    1.100268
C       0.605848   -2.069639    0.965186
C       0.047078   -2.823992   -0.009832
O       0.254652   -4.141508    0.306315
C       0.936171   -4.100283    1.470179
N       1.177717   -2.911250    1.915640
H       1.022073    1.805307    0.021654
H      -0.530385    1.744996   -0.856822
H      -0.514399    1.781355    0.927505
H       1.710583   -0.251092    1.152635
H       0.187640   -0.277375    2.049347
H      -0.488626   -2.614942   -0.917302
H       1.209191   -5.047310    1.908484
