20

C       0.265834    1.747007   -0.060436
C       0.043713    0.234426    0.082932
C       0.644100   -0.547605   -1.102468
C       2.093484   -0.845176   -0.693241
O       2.981555   -1.171531   -1.435578
C       2.214142   -0.650379    0.824690
C       0.795931   -0.357169    1.284855
C       0.416811   -0.061779    2.682041
N       0.163483   -1.402238    2.112573
H       1.328016    1.987720   -0.181913
H      -0.260198    2.134152   -0.938967
H      -0.098235    2.287172    0.818493
H      -1.031208    0.046213    0.186061
H       0.143325   -1.516639   -1.226953
H       0.603003   -0.033105   -2.065430
H       2.636625   -1.537109    1.302581
H       2.899238    0.185535    1.012026
H       1.174541   -0.031208    3.460607
H      -0.431357    0.596730    2.856147
H      -0.823512   -1.485892    1.876989
