21

C      -0.066510    1.528551    0.171735
C       1.473864    1.688024    0.029834
C       1.620377    0.142782    0.186380
C       0.077589   -0.010487    0.000924
O      -0.439400   -0.530684   -1.209382
C       0.307888   -0.472847   -2.407970
C       0.754727    0.902590   -2.922723
O       1.994864    1.336933   -2.391704
C       1.978937    2.246753   -1.307796
H      -0.429327    1.803005    1.166042
H      -0.694198    2.026195   -0.572361
H       1.934023    2.280448    0.826265
H       2.264508   -0.351591   -0.540792
H       1.928910   -0.159098    1.189785
H      -0.413982   -0.600664    0.779069
H       1.202289   -1.111798   -2.356860
H      -0.361927   -0.911202   -3.156702
H       0.916236    0.797403   -4.003587
H      -0.036046    1.652207   -2.777961
H       1.397444    3.146850   -1.570578
H       3.025801    2.551480   -1.201260
