21

C      -0.105802    1.515588    0.167306
C       0.314668    0.062798   -0.086997
C       0.863990   -0.609569    1.153996
C      -0.074968   -1.242265    2.175001
C       0.832650   -2.103286    1.365873
C       0.408534   -3.126957    0.310526
O       1.477364   -4.072668    0.294872
C       2.520982   -3.514915    1.063019
O       1.914399   -2.708146    2.041462
H       0.744910    2.118091    0.503423
H      -0.505092    1.978083   -0.740615
H      -0.876594    1.570774    0.942936
H      -0.548420   -0.502462   -0.461183
H       1.067043    0.033127   -0.886153
H       1.739246   -0.129173    1.585531
H       0.157201   -1.134240    3.228673
H      -1.136281   -1.265844    1.943352
H      -0.513316   -3.653846    0.580546
H       0.278240   -2.674080   -0.680296
H       3.079589   -4.316586    1.553872
H       3.193612   -2.913254    0.424023
