21

C       0.617004    1.551180    0.084415
C       0.098128    0.108827   -0.021976
C       0.665325   -0.648207   -1.198761
C       1.542982   -1.600189   -0.860004
C       2.313341   -2.510430   -1.764782
C       1.731086   -1.627410    0.638074
O       2.982657   -1.040498    1.046442
C       0.526614   -0.805466    1.173939
O       0.826776   -0.138077    2.374557
H       1.712156    1.583827    0.109815
H       0.289510    2.150120   -0.771447
H       0.250809    2.017732    1.001993
H      -0.996805    0.154864   -0.081776
H       0.388508   -0.415308   -2.223699
H       2.121950   -2.290716   -2.818614
H       3.391295   -2.423283   -1.583716
H       2.052846   -3.560845   -1.582918
H       1.756856   -2.636199    1.062225
H       3.174148   -0.321059    0.433435
H      -0.296298   -1.502597    1.373761
H       1.794273   -0.097777    2.407379
