20

C      -0.402304    1.381476    0.025766
C       0.036633   -0.071974   -0.066022
C       1.370200   -0.367447   -0.785940
O       1.937081   -0.949048    0.409390
C       0.733071   -0.705885    1.158642
C       0.959042   -0.020170    2.550702
C       0.347377   -1.258977    3.212136
N      -1.015904   -1.388955    2.640356
C       0.158060   -1.920759    1.895172
H       0.411470    2.021288    0.384313
H      -0.714685    1.757302   -0.954866
H      -1.246604    1.489247    0.713281
H      -0.790946   -0.692319   -0.420892
H       1.332320   -1.087834   -1.611886
H       1.931934    0.518014   -1.111044
H       2.033558    0.071683    2.725226
H       0.457601    0.930541    2.746731
H       0.586895   -1.687607    4.177133
H      -1.460656   -2.187179    3.093836
H       0.224209   -2.961340    1.601257
