17

C       0.013204    1.442174    0.055048
N      -0.071415   -0.003123    0.009437
C      -1.229062   -0.693751    0.013285
N      -2.384505   -0.004941   -0.003400
C      -3.464151   -0.779885   -0.014300
N      -3.499674   -2.108876   -0.003992
C      -2.283688   -2.690326    0.018526
C      -2.249860   -4.190865    0.034391
N      -1.126677   -2.041348    0.027485
H       1.039793    1.738517   -0.169314
H      -0.656347    1.885126   -0.685573
H      -0.262651    1.841608    1.038556
H       0.763093   -0.561694    0.075247
H      -4.424263   -0.265804   -0.031207
H      -2.758117   -4.583095   -0.852170
H      -1.222190   -4.553198    0.060940
H      -2.798879   -4.565924    0.903769
