18

C      -0.046379    1.451835   -0.021830
N      -0.024303    0.015528    0.072718
C      -1.091610   -1.004431   -0.007688
C      -1.768754   -1.145207   -1.347740
C      -1.224391   -2.119293   -2.078316
C      -0.107582   -2.853201   -1.369303
C       0.040824   -2.083731   -0.041439
C       1.012550   -0.877305   -0.049962
O       2.203311   -0.720780   -0.145898
H       0.990081    1.798277   -0.027079
H      -0.534198    1.791389   -0.944636
H      -0.565423    1.902452    0.832345
H      -1.772385   -0.978734    0.849988
H      -2.588516   -0.510185   -1.664241
H      -1.532052   -2.382960   -3.085200
H      -0.367515   -3.905935   -1.204143
H       0.822909   -2.853149   -1.949443
H       0.139531   -2.717419    0.839905
