19

C      -0.021796    1.544960   -0.059220
C      -0.003339    0.026282   -0.026830
C       0.334975   -0.606972   -1.351127
C       0.390425   -1.930089   -1.482175
C       0.110051   -2.795216   -0.286622
C      -0.207193   -1.944929    0.937042
C       0.613699   -0.658730    1.242768
O      -0.514996   -0.169112    2.057272
C      -1.117755   -0.688907    0.814861
H       0.955760    1.936501   -0.363446
H      -0.757383    1.906651   -0.786930
H      -0.271578    1.947785    0.922862
H       0.530867    0.054652   -2.190474
H       0.632670   -2.403481   -2.429038
H      -0.726783   -3.477960   -0.493179
H       0.968738   -3.448372   -0.074151
H      -0.419146   -2.527301    1.835740
H       1.619813   -0.555227    1.654502
H      -2.202638   -0.621847    0.709829
