17

O       0.021775    1.364242   -0.408553
C       0.046558    0.050423    0.124292
C      -1.342789   -0.516848    0.251402
C      -2.390529    0.145247    1.140639
C      -3.552991   -0.871167    1.201682
C      -2.919202   -2.228629    0.870825
O      -3.298014   -3.314069    1.226503
C      -1.664797   -1.948296    0.077419
O      -1.919253   -0.994577   -0.974461
H      -0.339169    1.302290   -1.300052
H       0.661144   -0.626754   -0.485709
H       0.509262    0.132038    1.113454
H      -1.963157    0.309923    2.135798
H      -2.682898    1.120571    0.745121
H      -4.055427   -0.916899    2.169099
H      -4.312381   -0.654055    0.443653
H      -0.944175   -2.732037   -0.134036
