14

O       0.129657    1.390609   -0.182043
C       0.042935    0.000395   -0.100454
C      -1.388968   -0.466033   -0.004930
N      -2.343316    0.381008   -0.006340
C      -3.649982   -0.106762    0.084236
N      -4.638816    0.698545    0.087583
C      -3.743807   -1.574970    0.170135
N      -2.762302   -2.395538    0.168775
O      -1.483519   -1.809428    0.074943
H      -0.780663    1.724972   -0.157346
H       0.496632   -0.483022   -0.979934
H       0.582122   -0.384940    0.779221
H      -5.518475    0.184263    0.158776
H      -4.718969   -2.052069    0.243712
