14

C      -0.018218    1.526570    0.005802
C       0.000396    0.025065   -0.018240
C      -0.051270   -0.706889   -1.149438
O      -0.034568   -2.043312   -1.167840
C       0.040322   -2.764860    0.032919
N       0.049746   -4.022695   -0.098319
N       0.095404   -2.054217    1.227089
C       0.076141   -0.762998    1.187657
H       0.884717    1.931581    0.476812
H      -0.077462    1.935460   -1.006460
H      -0.876482    1.908291    0.570480
H      -0.111067   -0.293006   -2.151091
H       0.105423   -4.435922    0.831221
H       0.121283   -0.245097    2.147931
