18

C      -0.135084    1.533195    0.075976
C      -0.000090    0.038110   -0.070874
C       0.721312   -0.640425   -1.180058
C       1.712658    0.111513   -2.070972
C       2.785505    0.511163   -1.075285
C       3.970115    1.289358   -1.396936
O       4.217950    1.733227   -2.500118
C       2.449069    0.067730    0.152310
N       1.275528   -0.708585    0.210146
H       0.736352    2.076677   -0.292138
H      -1.010255    1.872976   -0.488272
H      -0.291088    1.806067    1.124781
H      -0.846105   -0.512817    0.334824
H       0.313697   -1.575817   -1.551407
H       2.108563   -0.540539   -2.856412
H       1.282825    0.982451   -2.579162
H       4.658324    1.463688   -0.539381
H       3.001193    0.230139    1.071869
