21

C      -0.229241    1.526205    0.005615
C      -0.000906    0.033051   -0.062445
C       0.643776   -0.670161   -1.204487
C       1.445262    0.117310   -2.195446
N       2.812786   -0.384981   -2.435462
C       2.606116    0.713660   -1.475314
C       3.259044    2.028918   -1.814877
C       2.482355    0.294729   -0.007836
N       1.318613   -0.613092    0.121276
H       0.447443    2.096304   -0.632570
H      -1.253074    1.752365   -0.310234
H      -0.117681    1.889189    1.033688
H      -0.776128   -0.533065    0.452534
H       0.275673   -1.647960   -1.511557
H       0.963345    0.588655   -3.047524
H       2.948838   -1.270589   -1.949388
H       3.265756    2.185518   -2.896027
H       2.737260    2.867768   -1.340237
H       4.299212    2.045643   -1.469329
H       3.376790   -0.244341    0.329576
H       2.371629    1.168601    0.644827
