12

N       0.047976    1.351640   -0.029393
C      -0.021372    0.004088   -0.013042
C      -1.207581   -0.697667   -0.002139
C      -1.222986   -2.112290   -0.000918
O      -2.101366   -2.917213    0.006717
O       0.153969   -2.689009   -0.010256
C       1.178583   -1.887061   -0.017198
F       2.306169   -2.551289   -0.021537
N       1.216158   -0.609162   -0.019391
H       0.953152    1.784452    0.031452
H      -0.776518    1.919445    0.044939
H      -2.167260   -0.199523    0.003452
