21

C       0.010666    1.570960    0.067202
C       0.129827    0.060631    0.073594
C       1.394627   -0.717166   -0.184310
C       2.633872   -0.038472    0.425204
C       1.925379   -0.068525    1.797016
C       2.608334   -0.377509    3.111171
C       1.986744    0.976344    2.867390
O       2.752190    2.140134    2.714149
C       0.716579   -0.762202    1.194701
H       0.856307    2.059154    0.557318
H      -0.051340    1.951635   -0.958552
H      -0.897138    1.887874    0.592624
H      -0.730030   -0.438117   -0.371900
H       1.439954   -1.494144   -0.937893
H       3.516749   -0.682727    0.398793
H       2.902166    0.942940    0.014190
H       2.122633   -1.053150    3.809386
H       3.693205   -0.447776    3.104757
H       1.074186    1.215474    3.404645
H       3.481082    1.947966    2.115143
H       0.176974   -1.578341    1.661912
