16

C      -0.024835    1.318192    0.116370
N       0.030347   -0.121228   -0.077627
C       0.022972   -0.954796    1.109578
C      -1.380562   -1.180187    1.666902
O      -1.613787   -1.349390    2.832929
C       0.002001   -0.732661   -1.301645
N      -0.054379   -2.008733   -1.430363
C       0.055525    0.146316   -2.460154
N       0.093901    0.774421   -3.430637
H       0.822933    1.650717    0.726433
H       0.018349    1.832121   -0.843849
H      -0.950074    1.616331    0.625050
H       0.429733   -1.936327    0.842336
H       0.649089   -0.509583    1.888614
H      -2.181673   -1.187354    0.894119
H      -0.022875   -2.284052   -2.407642
