18

O      -0.649346   -0.000309    1.509105
C      -0.241059    0.966035    0.890613
C       1.206458    1.480151    1.040754
C       1.969211    1.481922   -0.200399
C       2.592363    1.471981   -1.228461
N      -1.027437    1.672857    0.049518
C      -0.887906    2.892173   -0.756042
C      -2.388913    2.748567   -1.141688
C      -2.444310    1.471729   -0.251665
H       1.180703    2.493503    1.463446
H       1.677635    0.830133    1.782606
H       3.153478    1.456192   -2.129764
H      -0.639201    3.785840   -0.171457
H      -0.171055    2.799468   -1.576472
H      -3.025732    3.567152   -0.806029
H      -2.565683    2.570519   -2.202474
H      -2.651974    0.532138   -0.773227
H      -3.089561    1.530519    0.630777
