18

C      -0.145851    1.543710   -0.040203
C       0.044784    0.036611    0.028050
O       0.823417   -0.423953   -1.092351
C       1.898814   -1.235897   -0.533502
C       1.199503   -1.912574    0.654616
C       0.824949   -0.533683    1.263379
C       2.186992    0.138104    1.271241
C       2.846005   -0.286198    0.186438
H       0.813458    2.064462    0.010996
H      -0.629614    1.815566   -0.982972
H      -0.783224    1.889824    0.781163
H      -0.938867   -0.454545   -0.011023
H       2.303002   -1.853666   -1.333640
H       0.339137   -2.516698    0.352362
H       1.871207   -2.490853    1.290608
H       0.255960   -0.521400    2.192707
H       2.496838    0.899465    1.975835
H       3.801293    0.054929   -0.190789
