15

C      -0.076640    1.516107    0.002161
C       1.428975    1.876802   -0.028940
N       2.193997    1.436708    1.152349
C       2.276533    0.637110   -0.101611
C       1.289657   -0.468310   -0.101967
C       0.037792    0.027160   -0.029554
O      -0.834894   -1.006879    0.083066
C      -0.014957   -2.104722    0.044739
N       1.253158   -1.852165   -0.057320
H      -0.556600    1.896432    0.910154
H      -0.608271    1.933786   -0.861311
H       1.727179    2.789713   -0.532528
H       3.027407    2.017082    1.233646
H       3.208441    0.599220   -0.653357
H      -0.505590   -3.063846    0.093098
