20

C       0.267864    1.571934   -0.048932
C       0.080823    0.036578    0.025821
C       0.614180   -0.611032   -1.236788
N      -0.134299   -0.738496   -2.251942
O       1.911587   -1.017271   -1.263629
C       2.734573   -0.972641   -0.091097
C       1.972580   -0.983393    1.197474
C       0.720965   -0.537283    1.271644
C      -0.094615   -0.542179    2.531883
H       1.327222    1.837934   -0.119844
H      -0.249070    1.967540   -0.926483
H      -0.140313    2.054687    0.844044
H      -0.993866   -0.166070    0.029272
H       0.386070   -1.169748   -3.018905
H       3.388002   -1.849024   -0.162576
H       3.384775   -0.086674   -0.161414
H       2.493672   -1.368656    2.069362
H       0.480229   -0.916127    3.383080
H      -0.453587    0.464851    2.777979
H      -0.986729   -1.170585    2.416892
