11

O       0.110667    1.339531    0.211719
C       0.072719   -0.002052   -0.001621
C       0.080925   -0.782580   -1.132474
C       0.021886   -2.140547   -0.683734
C      -0.018938   -2.133449    0.685173
N       0.012761   -0.811084    1.094399
H       0.154102    1.777571   -0.643212
H       0.123403   -0.430429   -2.151493
H       0.011446   -3.018280   -1.311315
H      -0.067244   -2.932397    1.405818
H      -0.004765   -0.475087    2.041111
