19

C       0.326219    0.945648   -1.155406
C       0.004059   -0.094259   -0.086478
O      -0.176524   -1.422199   -0.580458
C       0.987548   -2.169992   -0.841287
C       1.480101   -2.042694   -2.298791
C       1.156555   -3.145424   -3.262046
N       0.452942   -1.870844   -3.344065
C       2.695516   -1.281526   -2.493477
N       3.684301   -0.691207   -2.602205
H       1.316871    0.799613   -1.593004
H      -0.415557    0.917565   -1.958739
H       0.306442    1.944073   -0.705606
H       0.780637   -0.099990    0.692967
H      -0.946726    0.150126    0.397874
H       1.799148   -1.901633   -0.152853
H       0.718732   -3.215140   -0.656179
H       1.832283   -3.350223   -4.086660
H       0.650804   -4.015060   -2.849568
H      -0.451342   -1.911362   -2.875632
