17

O      -0.012203    0.004532   -0.017244
C      -0.021688    1.202527    0.021287
C      -1.122518    2.263290   -0.020399
C      -1.289184    2.911063    1.388313
C      -0.036857    3.810642    1.440498
C       1.229316    2.931335    1.377967
C       1.061538    2.280874   -0.029379
C      -0.040788    3.244815   -0.625484
O      -0.047126    4.425720    0.145941
H      -2.055627    2.042652   -0.536895
H      -2.192619    3.525301    1.413745
H      -1.340177    2.177895    2.196985
H      -0.039858    4.578232    2.214009
H       2.122927    3.560035    1.396022
H       1.298743    2.199131    2.186140
H       1.993810    2.075265   -0.553531
H      -0.046879    3.457184   -1.690935
