20

N       0.019235   -1.172394   -0.004502
C      -0.006076   -0.017027    0.002348
C      -0.015033    1.443560    0.010772
C       1.405533    2.047814   -0.000982
C       1.381669    3.556779    0.007989
C       0.773043    4.501317    1.096645
C       1.381411    5.441024    0.018791
C       2.620869    4.503630   -0.001185
C       0.747673    4.513666   -1.055129
H      -0.580496    1.793181   -0.860342
H      -0.561709    1.783155    0.897696
H       1.959738    1.680459    0.870317
H       1.940874    1.690608   -0.888147
H      -0.316818    4.509717    1.193782
H       1.260534    4.494444    2.075996
H       1.380785    6.530720    0.025049
H       3.247384    4.494973    0.895506
H       3.226097    4.505304   -0.912419
H       1.211926    4.518108   -2.045721
H      -0.344176    4.523028   -1.126421
