22

C      -0.003282    1.533380   -0.043313
C       0.102605    0.012901   -0.095978
N       0.554224   -0.515422    1.194457
C       0.712306   -1.963492    1.247005
C       1.784353   -2.441056    0.339551
N       2.630625   -2.695523   -0.406375
C       0.962617   -2.459480    2.694543
C      -0.148622   -1.987769    3.639207
N       1.151113   -3.910713    2.649397
H       0.976624    1.990702    0.135658
H      -0.380932    1.925074   -0.991992
H      -0.676458    1.848848    0.758995
H      -0.883878   -0.421707   -0.301997
H       0.761955   -0.288635   -0.926540
H       1.436244   -0.076392    1.446141
H      -0.229810   -2.410222    0.899240
H       1.918172   -2.028071    3.020757
H      -0.257684   -0.901512    3.620837
H      -1.110370   -2.427251    3.346420
H       0.068406   -2.307933    4.663184
H       1.543380   -4.239184    3.525564
H       0.251728   -4.374967    2.548207
