13

O       0.011907    1.388193   -0.084123
C       0.041431    0.027990   -0.063970
C      -0.044068   -0.723588   -1.222955
N      -0.017994   -2.063642   -1.231280
C       0.096325   -2.643298   -0.049371
O       0.123790   -3.987668   -0.044578
N       0.187766   -2.032590    1.141684
C       0.159201   -0.712799    1.119231
O       0.246766   -0.027214    2.278682
H       0.087882    1.702810    0.824435
H      -0.137418   -0.221293   -2.182116
H       0.209503   -4.260086    0.877595
H       0.322066   -0.675936    2.991589
