15

C      -0.119989    1.457936   -0.045344
N      -0.141723    0.006406   -0.130713
C       0.584950   -0.588893   -0.955196
O       1.439457   -0.046627   -1.877429
C       2.101131   -1.110180   -2.553494
O       1.295195   -2.256850   -2.391984
C       0.656547   -2.107111   -1.137039
C       1.420716   -2.750870   -0.049682
N       2.035309   -3.259326    0.785515
H       0.555943    1.940918   -0.759127
H      -1.135769    1.834657   -0.204016
H       0.171227    1.744369    0.970671
H       2.171812   -0.877578   -3.617820
H       3.097955   -1.252452   -2.112077
H      -0.341093   -2.547283   -1.188833
