25

C       0.165374    1.654153   -0.383814
C       0.226856    0.146406   -0.204941
C      -1.019364   -0.541080   -0.750918
C       1.484252   -0.663927   -0.390588
C       2.728290    0.034364    0.175842
C       2.091489   -0.010992    1.613782
C       2.770885   -1.098370    2.456102
C       2.009084    1.281539    2.428326
C       0.803026   -0.587441    0.987346
H       1.111303    2.155524   -0.177612
H      -0.106778    1.893275   -1.419026
H      -0.598328    2.099107    0.264862
H      -1.147197   -0.327440   -1.818428
H      -0.965683   -1.627581   -0.630566
H      -1.919552   -0.190657   -0.232663
H       1.513896   -1.499397   -1.081621
H       3.636978   -0.568446    0.105041
H       2.949210    1.025989   -0.231933
H       3.784706   -0.794521    2.741015
H       2.207226   -1.289455    3.377077
H       2.840704   -2.042217    1.905693
H       1.529065    2.096797    1.885307
H       1.438520    1.117479    3.350151
H       3.011320    1.617867    2.720055
H       0.207789   -1.350460    1.481664
