20

O       0.020420    0.048729    0.468849
C       0.016299    1.209351    0.115061
C      -1.305452    1.955455   -0.108141
N      -1.277488    3.105115   -1.008731
C      -0.140866    3.986426   -0.737864
C       1.208625    3.270994   -0.883463
C       1.276760    2.017858   -0.019083
C       2.107791    2.042016    1.269576
C       2.575821    1.254094    0.088930
H      -2.054546    1.230727   -0.437503
H      -1.625759    2.302197    0.886973
H      -1.224045    2.778775   -1.969363
H      -0.193104    4.845584   -1.414620
H      -0.254063    4.375129    0.283111
H       1.340840    2.993410   -1.939190
H       2.038290    3.944852   -0.635607
H       2.605068    2.975967    1.510061
H       1.717537    1.494107    2.119643
H       2.491068    0.175211    0.142343
H       3.413487    1.634986   -0.485620
