18

C      -0.639493    0.822543    0.011749
O       0.741986    0.567588    0.230822
C       0.992445   -0.273305    1.275887
C       0.703828   -0.100643    2.786775
O      -0.622610   -0.069611    3.259752
C       1.466225   -1.438142    2.713520
C       0.812566   -1.852955    1.346103
N       2.104491   -2.071217    0.620704
C       2.377367   -0.921997    1.547442
H      -1.114757    1.253880    0.900318
H      -0.701641    1.530733   -0.816497
H      -1.172484   -0.097775   -0.266486
H       1.222824    0.727003    3.278620
H      -1.092337   -0.831986    2.904291
H       1.765280   -2.112198    3.514091
H      -0.072910   -2.465445    1.168612
H       2.559758   -2.916762    0.976439
H       3.339610   -0.415061    1.619778
