16

C      -0.395215    0.355886    0.590787
O       0.097633    0.675610   -0.706743
C       0.625267   -0.322942   -1.435872
C       0.838138   -1.686347   -1.248396
C       1.460838   -2.152725   -2.464900
C       1.596945   -1.093989   -3.312226
N       1.082293    0.020230   -2.672131
C       0.533055   -2.495765   -0.131481
C       0.298261   -3.239719    0.788880
H      -1.201919   -0.380950    0.535296
H       0.401458   -0.037336    1.229077
H      -0.773737    1.293077    1.001417
H       1.759838   -3.171763   -2.650658
H       2.007416   -1.020134   -4.305098
H       1.036566    0.956647   -3.034593
H       0.088421   -3.887229    1.602809
