16

O       0.022832    1.430183    0.006444
C       0.008322    0.015074    0.002211
C      -1.407704   -0.469464    0.012358
C      -2.486246    0.348804    0.023278
C      -3.804295   -0.210021    0.032372
N      -4.035892   -1.488616    0.030784
N      -2.950467   -2.283889    0.019907
C      -1.602930   -1.915709    0.009976
N      -0.605302   -2.728265   -0.000364
H       0.939845    1.716583    0.000137
H       0.513427   -0.406412   -0.881051
H       0.527910   -0.411875    0.874357
H      -2.349198    1.422982    0.025134
H      -4.683182    0.424661    0.041153
H      -3.171811   -3.269076    0.019017
H      -0.905784   -3.704200   -0.000613
