19

C      -0.263980    1.484046   -0.033708
N       0.125465    0.088000   -0.011635
C       1.209404   -0.402274   -0.890706
C       1.834106   -1.158833    0.314646
C       0.734415   -0.498115    1.198562
C       1.907795    0.314804    1.816002
O       2.038651    1.238358    2.578314
N       2.825936   -0.381523    1.052229
C       4.201686   -0.068904    0.750518
H       0.566549    2.184684    0.156235
H      -0.700535    1.721601   -1.009547
H      -1.029605    1.658077    0.729091
H       0.839175   -1.027386   -1.710939
H       1.869172    0.373537   -1.305089
H       2.017442   -2.230622    0.245056
H       0.051949   -1.012757    1.877438
H       4.529721    0.692982    1.461844
H       4.841896   -0.951626    0.854778
H       4.317596    0.327162   -0.266796
