15

C      -0.036896    1.549537    0.335558
C      -0.017798    0.068293   -0.046280
O       0.814647   -0.688845    0.806434
C      -1.433678   -0.531947   -0.040787
C      -1.651515   -1.949278    0.301180
O      -1.903192   -0.912671    1.258777
C      -2.409689    0.131738   -0.886129
N      -3.149992    0.674839   -1.588225
H       0.986024    1.931781    0.357986
H      -0.617439    2.139133   -0.379567
H      -0.481561    1.683503    1.327929
H       0.395633   -0.051750   -1.054006
H       0.421709   -0.645888    1.688065
H      -2.537873   -2.456194   -0.071992
H      -0.775162   -2.558828    0.499849
