20

C       0.192652    1.580291   -0.263008
C      -0.021890    0.076059   -0.004935
C       0.618191   -0.440129    1.240703
C       0.111299   -0.762250    2.484611
N      -1.223238   -0.721283    2.896644
C      -1.493449   -0.913301    4.314936
N       1.103105   -1.212666    3.321794
C       2.209244   -1.168962    2.608641
N       1.978759   -0.704166    1.356387
H       1.257343    1.817525   -0.360988
H      -0.307280    1.896986   -1.184324
H      -0.200394    2.179732    0.563998
H      -1.095864   -0.133894    0.058486
H       0.336117   -0.490875   -0.875963
H      -1.719164    0.071634    2.515905
H      -1.127134   -1.893966    4.625128
H      -1.014920   -0.164623    4.964140
H      -2.575249   -0.879191    4.470577
H       3.191320   -1.459464    2.950076
H       2.662421   -0.589800    0.627332
