19

O       0.517480    0.500644    0.618253
C      -0.125910    0.134846   -0.588632
C      -1.504573   -0.443979   -0.346334
C      -2.043275   -1.578310   -1.200621
C      -1.632166   -1.821325    0.237282
N      -0.442771   -2.559907    0.605912
C      -0.700451   -3.993889    0.747241
C       0.525110   -4.713795    1.101724
N       1.495967   -5.284067    1.358401
H       0.520790   -0.281388    1.183842
H      -0.199212    1.049014   -1.186698
H       0.487438   -0.569057   -1.177913
H      -2.226084    0.283102    0.014362
H      -3.095046   -1.582537   -1.465347
H      -1.387016   -1.962361   -1.976984
H      -2.428223   -1.969755    0.961942
H       0.285728   -2.428428   -0.087990
H      -1.432804   -4.140944    1.550153
H      -1.126650   -4.460458   -0.157421
