14

N       0.023142    1.331896    0.119377
C      -0.003986   -0.043186    0.040545
N      -1.109595   -0.770054    0.066893
C      -0.690973   -2.071725    0.066337
N      -1.598346   -3.097901    0.144081
C       0.694728   -2.148493    0.020246
N       1.115082   -0.798068   -0.005012
C       1.558918   -3.242892   -0.041732
N       2.262877   -4.168133   -0.093786
H       0.724040    1.789143   -0.446648
H      -0.895677    1.729775   -0.016187
H      -2.524132   -2.852081   -0.172523
H      -1.279516   -3.997993   -0.180906
H       2.063379   -0.483648    0.110038
