21

C      -0.652761    1.224639    0.129384
C       0.396833    0.128968   -0.092059
C       0.748906   -0.583223    1.193945
N      -0.168491   -1.644927    1.653000
C       1.225708   -1.991253    1.297477
C       1.435479   -2.922083    0.117210
C       0.955300   -4.356233    0.379918
N      -0.367241   -4.436244    0.704721
O       1.680693   -5.325292    0.268642
H      -0.291973    1.985995    0.830003
H      -0.902716    1.728185   -0.809030
H      -1.572413    0.797918    0.541634
H       0.017941   -0.592690   -0.821821
H       1.309894    0.564131   -0.518169
H       1.124000    0.084601    1.970293
H      -0.281842   -1.616956    2.661982
H       1.892030   -2.199121    2.133353
H       0.906926   -2.544132   -0.762934
H       2.498191   -2.981992   -0.126914
H      -0.871327   -3.594304    0.947102
H      -0.731429   -5.336082    0.972377
