22

C      -0.006362    1.639049   -0.156482
C       0.058422    0.127912   -0.087626
N       1.317213   -0.631703   -0.138553
C       2.587193    0.063819   -0.273856
C       0.581478   -0.570957    1.116192
C       1.078027    0.029421    2.445003
C       0.942377   -1.394773    3.064239
O       0.423429   -1.539011    4.360780
C       0.094771   -1.835399    1.834978
H       0.710611    2.122729    0.510871
H       0.178680    2.000096   -1.174376
H      -1.006464    1.978404    0.134506
H      -0.740677   -0.365446   -0.642809
H       2.667566    1.013465    0.275018
H       3.388588   -0.594498    0.078194
H       2.767860    0.270131   -1.333810
H       2.066144    0.495133    2.473630
H       0.354000    0.728392    2.881155
H       1.908570   -1.906581    3.078067
H      -0.445165   -1.123167    4.382171
H      -0.979348   -1.801550    2.055775
H       0.333277   -2.792609    1.366355
