20

C      -0.009558    1.552862    0.158018
C      -0.049181    0.026585    0.136217
O       0.547303   -0.529354    1.294616
C      -1.492497   -0.537206   -0.053077
C      -2.089849   -0.002619   -1.283378
N      -2.540207    0.413235   -2.263643
C      -1.531531   -2.059482   -0.069940
C      -1.695016   -2.827124    1.212237
C      -2.821347   -2.788189    0.211503
H       1.019176    1.892461    0.302683
H      -0.392686    1.978965   -0.772472
H      -0.619883    1.944616    0.982397
H       0.557934   -0.341905   -0.698915
H       0.190100   -0.072292    2.064151
H      -2.105429   -0.178188    0.786665
H      -0.883062   -2.498658   -0.822499
H      -1.130610   -3.744818    1.330193
H      -1.809427   -2.261109    2.130208
H      -3.697143   -2.193782    0.451109
H      -3.039066   -3.679454   -0.365504
