18

C       0.017463    1.386890   -0.148560
N       0.122652   -0.044519    0.035027
C       0.680089   -0.598546    1.141137
O       1.132913    0.006059    2.090089
O       0.652225   -1.956592    1.028323
C       1.223563   -2.682024    2.141636
C       0.142722   -2.968895    3.187025
C       1.824544   -3.899776    1.606997
C       2.318197   -4.918621    1.206132
H       0.591064    1.723750   -1.019629
H      -1.025663    1.697806   -0.275065
H       0.422533    1.863175    0.744824
H      -0.191477   -0.673886   -0.684346
H       1.995050   -2.046402    2.586893
H       0.566616   -3.544786    4.013986
H      -0.243011   -2.023905    3.576204
H      -0.673749   -3.543334    2.742474
H       2.763065   -5.813177    0.845888
