15

C      -0.056998    1.509886    0.090028
C       0.046250   -0.006097   -0.074325
C       0.760605   -0.456748   -1.330850
N       1.214732    0.433301   -2.143137
O       1.842338   -0.113602   -3.244310
C       0.895736   -1.855280   -1.552017
C       0.983288   -3.054975   -1.691729
C       1.086998   -4.403919   -1.858155
N       1.173921   -5.554585   -1.997403
H       0.931975    1.973091    0.126787
H      -0.602019    1.962777   -0.741728
H      -0.584324    1.744607    1.018630
H       0.565835   -0.450467    0.784446
H      -0.952878   -0.460691   -0.075339
H       2.118708    0.665383   -3.741247
