21

C       0.002052    1.416537   -0.117758
C       1.438728    1.950715   -0.042614
C       2.220985    1.380248    1.161675
C       1.719438    1.885361    2.533056
C       0.510695    1.144976    3.047770
C       0.008598    0.060908    2.456306
C       0.610263   -0.494846    1.184729
C       2.102091   -0.151824    1.108188
O      -0.065918    0.002786    0.015633
H      -0.620449    1.903360    0.646643
H      -0.440234    1.638063   -1.093888
H       1.971464    1.665521   -0.958311
H       1.415500    3.046871   -0.011498
H       3.269314    1.679671    1.053657
H       2.527766    1.792766    3.274055
H       1.498722    2.960583    2.485158
H       0.053642    1.531984    3.956575
H      -0.879699   -0.425117    2.849696
H       0.457876   -1.577122    1.137469
H       2.516465   -0.539679    0.171637
H       2.639074   -0.623237    1.938998
