16

O       0.148593    1.401752   -0.100151
C       0.102662   -0.011801   -0.052439
C      -1.334005   -0.537917    0.139191
C      -1.410353   -2.017796    0.197679
C      -1.722432   -2.893715    1.163186
N      -1.585991   -4.168295    0.609816
C      -1.189943   -4.077095   -0.704624
O      -0.972028   -4.938928   -1.510500
O      -1.079019   -2.718428   -0.953310
H      -0.242504    1.685048   -0.932678
H       0.546857   -0.468242   -0.947886
H       0.715334   -0.308124    0.804879
H      -1.746920   -0.121436    1.062975
H      -1.957076   -0.171151   -0.688434
H      -2.027650   -2.730957    2.182266
H      -1.761264   -5.050209    1.056762
