21

C      -0.080835    1.496664   -0.315444
C      -0.003397   -0.002871   -0.139384
C       1.336634   -0.722852   -0.041388
C       1.576292   -2.007587   -0.797645
O       2.498585    0.054344    0.002716
C       0.438994   -0.630279    1.180720
O       0.988982    0.224889    2.157396
C      -0.308902   -1.813934    1.750925
O       0.478247   -2.632240    2.595838
H       0.792598    1.993614    0.110832
H      -0.114350    1.754138   -1.378732
H      -0.980515    1.914163    0.151797
H      -0.785597   -0.558421   -0.652907
H       1.919753   -1.775509   -1.811010
H       2.357998   -2.605729   -0.316286
H       0.668793   -2.610366   -0.880220
H       2.514460    0.464306    0.879072
H       0.308851    0.836715    2.458857
H      -1.135368   -1.454051    2.377130
H      -0.760876   -2.389272    0.928353
H       1.263019   -2.892951    2.102870
