17

C      -0.426923    1.464666   -0.187684
N      -0.173438    0.058488    0.061788
C      -1.271760   -0.803278    0.553685
C      -0.269153   -1.543122    1.469371
C       0.718376   -0.381581    1.167600
C       2.078891   -0.777340    0.574366
O       2.504364   -1.898131    0.572498
C       0.899849    0.577290    2.262286
N       1.059397    1.362918    3.096398
H       0.500490    1.969175   -0.474258
H      -1.125931    1.548222   -1.025367
H      -0.854477    1.992920    0.680362
H      -2.028578   -0.247007    1.125548
H      -1.769587   -1.380483   -0.230817
H      -0.555033   -1.666952    2.511792
H       0.111225   -2.483250    1.071167
H       2.614638    0.064931    0.088236
