20

C      -0.206208    1.614817    0.348932
N      -0.224645    0.165559    0.491725
C       0.774095   -0.614944   -0.201638
C       0.800675   -0.505835    1.305343
C       1.942475    0.231940    1.977515
C       0.270866   -1.674300    2.089646
O       0.935299   -2.214587    2.953229
C      -1.137504   -2.187602    1.816183
O      -1.403546   -3.328673    2.578334
H       0.794110    2.043957    0.193993
H      -0.826172    1.881656   -0.512192
H      -0.647113    2.072533    1.239333
H       0.430572   -1.519929   -0.696327
H       1.577715   -0.090747   -0.719333
H       2.412620    0.956601    1.310958
H       1.596742    0.756805    2.874155
H       2.697233   -0.490469    2.294755
H      -1.834660   -1.364779    2.041606
H      -1.261818   -2.393041    0.743406
H      -0.624598   -3.437542    3.147711
