21

C       0.109744    1.292666    0.158498
O      -0.191392   -0.048669   -0.145397
C       0.579680   -0.579311   -1.203364
C       2.075935   -0.841296   -0.865625
C       2.357887   -2.143467   -1.572495
C       1.241652   -2.749390   -1.979446
C       1.133118   -4.065808   -2.675520
O       2.421818   -4.619763   -2.868305
C       0.009878   -1.954018   -1.612136
H       1.140277    1.417886    0.523137
H      -0.025364    1.948115   -0.717118
H      -0.579159    1.610440    0.945285
H       0.529795    0.105525   -2.065937
H       2.734533   -0.026207   -1.186336
H       2.198470   -0.940050    0.222830
H       3.353302   -2.549430   -1.700423
H       0.490915   -4.738087   -2.077647
H       0.608474   -3.923309   -3.637877
H       2.320458   -5.460484   -3.322747
H      -0.515957   -2.397554   -0.755266
H      -0.721249   -1.877515   -2.425397
