16

O      -0.018104   -0.072302    0.004301
C      -0.002379    1.155505    0.009936
C      -1.241085    1.958953    0.030638
C      -1.245221    3.317096    0.037106
N      -0.043499    3.954434    0.023487
C       0.545133    5.299553    0.023076
C       1.944837    4.585985    0.000431
C       1.153447    3.286769    0.004318
C       1.243524    1.941399   -0.003162
H      -2.176235    1.412454    0.040825
H      -2.139363    3.929668    0.052198
H       0.300914    5.889574   -0.865050
H       0.324945    5.879529    0.924015
H       2.538191    4.770113   -0.897072
H       2.562314    4.760762    0.883407
H       2.190783    1.417326   -0.018287
