16

O       0.213111    1.381186   -0.160701
C       0.058590    0.012080   -0.019571
C      -0.028497   -0.667553    1.371491
O       0.992567   -0.619522    2.288147
C      -1.492381   -0.115966    1.510082
C      -1.375427   -0.665242    0.055668
C      -0.641261   -1.906444    0.643700
C      -2.396046   -0.663716   -0.950143
N      -3.214989   -0.654430   -1.767180
H      -0.118478    1.836297    0.619969
H       0.728804   -0.461744   -0.740338
H       0.735516   -1.108077    3.077885
H      -2.163246   -0.667783    2.172385
H      -1.638743    0.960534    1.623212
H       0.010695   -2.457140   -0.037479
H      -1.262621   -2.568878    1.248770
