19

C       0.265395    1.554692   -0.256163
C      -0.400379    0.339281    0.383754
N       0.242959    0.021544    1.651401
C      -0.192828   -0.963606    2.309627
N       0.274962   -1.426544    3.524425
C      -0.463475   -2.538244    3.935420
C      -0.193433   -3.257697    5.208242
C      -1.373193   -2.747554    2.975054
O      -1.236373   -1.804179    1.966753
H       1.327097    1.360585   -0.437107
H      -0.209581    1.803705   -1.210883
H       0.193723    2.424403    0.404206
H      -1.473505    0.540531    0.527990
H      -0.347939   -0.516029   -0.308036
H       1.040277   -0.991268    4.006148
H      -0.306241   -2.595907    6.075241
H      -0.889592   -4.090762    5.325754
H       0.825998   -3.660837    5.233151
H      -2.151107   -3.480015    2.853188
