25

C       0.069298    1.553874   -0.262417
C      -0.007688    0.027540   -0.189313
C      -1.433686   -0.502760   -0.023776
C      -1.485350   -2.032773   -0.058775
O      -1.926122    0.018478    1.207648
C      -3.316903    0.016893    1.383037
C      -4.009698   -1.169504    2.118491
C      -4.876104   -0.122912    2.870594
C      -3.820490    0.955201    2.500220
H       1.105524    1.893479   -0.353785
H      -0.483651    1.936341   -1.128167
H      -0.362325    2.001952    0.635707
H       0.420917   -0.416820   -1.095718
H       0.591792   -0.338241    0.653806
H      -2.056046   -0.106492   -0.845686
H      -2.509933   -2.401057    0.040889
H      -1.084083   -2.408375   -1.005856
H      -0.890293   -2.451472    0.759317
H      -3.822071    0.228801    0.428038
H      -4.517482   -1.930628    1.520559
H      -3.295611   -1.656037    2.788980
H      -5.832526    0.052121    2.370179
H      -5.067509   -0.296397    3.931062
H      -3.051718    1.044899    3.273000
H      -4.161988    1.953937    2.218724
