18

O      -0.250586    1.272055   -0.373666
C      -0.011639   -0.061913   -0.057558
C      -1.272595   -0.896640    0.192036
O      -0.688664   -1.507091    1.367137
C       0.493233   -0.683786    1.292577
C       1.661144   -1.380951    0.549686
C       1.130659   -0.807138   -0.774994
C       1.140906   -1.332525   -2.154221
N       1.991983   -0.180933   -1.778291
H       0.578794    1.758580   -0.304708
H      -2.141431   -0.277926    0.447584
H      -1.549012   -1.631986   -0.571838
H       0.692621   -0.139529    2.218708
H       2.647276   -0.982790    0.806358
H       1.665191   -2.468264    0.648390
H       1.686486   -2.243924   -2.383123
H       0.270473   -1.152072   -2.780767
H       1.545496    0.674555   -2.109416
