19

C      -0.309124    1.490593   -0.026199
C       0.153907    0.032944    0.036377
C       0.622956   -0.489315   -1.320345
N       1.035062   -1.894742   -1.216225
C       1.555598   -2.478254   -2.450643
C       1.890307   -3.950321   -2.123829
O       3.014924   -4.353587   -2.032688
C       0.542639   -2.449143   -3.513300
N      -0.238486   -2.460590   -4.364557
H       0.496676    2.151414   -0.363711
H      -1.148698    1.609985   -0.719229
H      -0.636566    1.840675    0.956787
H       0.973242   -0.060862    0.762562
H      -0.656016   -0.610197    0.398022
H      -0.198860   -0.433234   -2.043167
H       1.433237    0.153326   -1.709726
H       1.760653   -1.978597   -0.509511
H       2.472836   -2.002292   -2.836264
H       1.000077   -4.579288   -1.924743
