19

C      -1.109173    0.874292    0.188026
O       0.156773    0.287958   -0.041300
C       0.704122   -0.440110    1.043656
C       0.111136   -1.859647    1.160582
C      -1.287354   -1.918613    1.734905
O      -2.196514   -2.559110    1.274571
C       2.218866   -0.493848    0.793660
C       2.862902    0.877988    0.808066
O       3.882379    1.136582    1.395373
H      -1.102950    1.509923    1.086095
H      -1.331552    1.495695   -0.682387
H      -1.905782    0.125891    0.291478
H       0.512214    0.102318    1.986732
H       0.129449   -2.364007    0.190482
H       0.743765   -2.429506    1.856876
H      -1.420163   -1.326082    2.671872
H       2.726156   -1.123463    1.528793
H       2.375366   -0.929501   -0.202948
H       2.318782    1.648333    0.222344
