21

C       0.650130   -0.896842    1.604410
C       0.394455   -0.379063    0.184177
C      -1.083173   -0.446750   -0.210966
O      -1.682611    0.543226    0.572167
C      -3.089408    0.682451    0.692108
C      -1.495415   -0.610307   -1.720245
C      -0.978476   -2.068606   -1.708736
C      -1.805727   -1.828745   -0.425526
O      -2.809382   -1.138068   -1.275081
H       1.698608   -0.761725    1.886254
H       0.029409   -0.359246    2.325003
H       0.420073   -1.965013    1.687458
H       0.683991    0.675581    0.122097
H       1.021693   -0.917451   -0.528545
H      -3.234275    1.454291    1.454347
H      -3.562636    0.998223   -0.241794
H      -3.573686   -0.241846    1.025110
H      -1.499716    0.118668   -2.531628
H      -1.493881   -2.703661   -2.428667
H       0.087971   -2.282154   -1.647139
H      -2.181027   -2.553482    0.297970
