18

C      -0.081049    1.575044   -0.001125
C       0.055598    0.051200   -0.007950
C       0.749554   -0.496299   -1.263477
C       0.865077   -2.021254   -1.209133
C       1.523776   -2.516724    0.064871
O       2.119638   -3.563981    0.160847
N       1.387511   -1.673848    1.167081
C       0.754311   -0.434917    1.259778
O       0.765355    0.175251    2.304447
H       0.899373    2.055413   -0.082107
H      -0.693435    1.905195   -0.845099
H      -0.541507    1.915366    0.927517
H      -0.952762   -0.390214    0.036636
H       0.191048   -0.193599   -2.154427
H       1.747899   -0.049366   -1.351420
H      -0.133391   -2.477631   -1.252017
H       1.433180   -2.431385   -2.046693
H       1.827325   -1.999026    2.020581
