11

N       0.149821   -1.156347   -0.006172
C       0.033123   -0.004855    0.002117
C      -0.085829    1.404713    0.011945
C      -1.193818    2.231512    0.031542
C      -0.653782    3.535624    0.031959
N       0.688125    3.518780    0.014003
N       1.003600    2.231345    0.002296
C      -1.372390    4.763952    0.048696
N      -1.991292    5.740570    0.062637
H      -2.229308    1.937631    0.043613
H       1.974816    1.958742   -0.012201
