18

C       0.035558    1.582546    0.131644
N       0.029287    0.137081    0.140864
C      -1.248058   -0.560336    0.374479
C      -0.482411   -1.600828    1.222837
C       0.661565   -0.562897    1.273484
O      -1.055964   -2.100521    2.439722
C      -0.887815   -3.490204    2.078432
C      -0.262048   -3.039135    0.750671
O       0.192093   -3.568566   -0.215625
H       1.062732    1.947375    0.027887
H      -0.538223    1.949505   -0.725717
H      -0.396121    2.024720    1.049953
H      -1.952923   -0.009406    1.019233
H      -1.765242   -0.904853   -0.527033
H       1.685161   -0.909479    1.097338
H       0.614948   -0.012849    2.228127
H      -0.217702   -4.030960    2.757489
H      -1.839393   -4.028678    1.993980
