19

C       0.045335    1.467759    0.020553
N      -0.004621    0.020686   -0.008939
C       0.013317   -0.764823   -1.147332
C       0.018741   -2.057494   -0.703361
C       0.024465   -3.312942   -1.512522
O       0.050893   -2.959708   -2.888293
N       0.009805   -2.091288    0.671966
C       0.000156   -0.832234    1.062709
C      -0.007026   -0.375799    2.483777
H       1.076629    1.839569    0.036003
H      -0.455283    1.868448   -0.863685
H      -0.471646    1.842378    0.906498
H       0.015437   -0.339773   -2.136006
H       0.899429   -3.923557   -1.235715
H      -0.867382   -3.912851   -1.267870
H       0.045186   -3.771445   -3.402221
H       0.874092    0.227654    2.732488
H      -0.893242    0.224191    2.724132
H      -0.009669   -1.258870    3.123755
