16

C       0.027727    1.604367   -0.083409
C       0.054693    0.086606    0.000998
C       1.132049   -0.703304   -0.803002
O       2.401673   -0.112592   -0.387147
C       2.178273   -0.751566    0.869286
C       1.204869   -1.764058    0.354761
C       0.675457   -0.627457    1.210607
O       0.173228   -0.748331    2.487708
H       1.039255    2.008236    0.007420
H      -0.391515    1.941820   -1.037620
H      -0.591637    2.028939    0.714538
H      -0.928170   -0.354490   -0.197947
H       1.061196   -0.877496   -1.874296
H       2.977357   -0.809406    1.597182
H       1.129566   -2.840273    0.412380
H       0.444046    0.022996    2.998048
