21

C       2.973834   -0.753031    0.413667
N       1.631440   -1.310017    0.484186
C       1.359457   -2.294808    1.523112
C       0.737362   -0.938042    1.585234
C       1.093103    0.042889    2.670351
C       0.802553    1.557340    2.443018
C       0.327376    1.651423    3.917118
C       0.163639    0.107775    3.919690
H       3.496782   -0.680797    1.380152
H       3.578424   -1.386540   -0.243677
H       2.930396    0.247664   -0.028634
H       0.782467   -3.166368    1.223367
H       2.149945   -2.503077    2.245188
H      -0.300114   -0.849448    1.257669
H       2.128498   -0.093432    2.995351
H       1.632603    2.193417    2.125459
H      -0.027367    1.695298    1.742020
H       1.133199    1.973576    4.583151
H      -0.557325    2.256230    4.128760
H      -0.859181   -0.188858    3.664278
H       0.471245   -0.445015    4.810656
