13

N       0.031969    1.406094   -0.117073
C      -0.054104    0.043069   -0.044859
C      -1.209750   -0.687713   -0.020217
C      -1.188379   -2.134385    0.000118
O      -2.149021   -2.885076    0.019571
N       0.115095   -2.662443   -0.001713
N       1.270921   -1.983067   -0.012124
C       1.177243   -0.708692   -0.034511
F       2.312767   -0.003455   -0.038136
H       0.917385    1.825869    0.112897
H      -0.786202    1.947770    0.107332
H      -2.184764   -0.215847   -0.020564
H       0.203464   -3.668647    0.015952
