17

C      -0.309765    1.358221   -0.154113
C      -0.094172   -0.117834    0.120318
C       1.174116   -0.796150   -0.470480
O       1.543112   -1.322476    0.831397
C       0.485518   -0.582114    1.495207
C       0.987261    0.446451    2.392805
C       1.393894    1.297243    3.138828
C       0.988932   -1.818406   -1.483236
C       0.819629   -2.653106   -2.331614
H       0.573799    1.946330    0.108964
H      -0.530503    1.519185   -1.214475
H      -1.153013    1.745260    0.426360
H      -0.988632   -0.694352   -0.123060
H       1.921225   -0.065000   -0.810138
H      -0.168376   -1.265459    2.049736
H       1.757479    2.041607    3.803724
H       0.677609   -3.394371   -3.078969
