21

C       0.122112    1.392872   -0.485572
C      -0.095117    0.173820    0.429503
C      -1.429761   -0.406718    0.314555
C      -2.527446   -0.892704    0.186838
C      -3.865371   -1.417967    0.088359
C      -4.819921   -0.857134    1.136066
O      -4.959248    0.547417    1.053207
C      -4.420769   -1.734079   -1.290287
C      -4.066270   -2.857093   -0.358037
H       1.135238    1.787323   -0.362633
H      -0.017324    1.120263   -1.535143
H      -0.588587    2.189330   -0.248254
H       0.653095   -0.595571    0.198422
H       0.087418    0.461420    1.473030
H      -5.819757   -1.276255    0.980995
H      -4.477945   -1.166956    2.136384
H      -4.068371    0.916224    1.084658
H      -5.468446   -1.509637   -1.458660
H      -3.776027   -1.553858   -2.142003
H      -3.179333   -3.442343   -0.568937
H      -4.871050   -3.411056    0.114292
