18

C      -0.258615    1.541172   -0.077994
C       0.043824    0.050236   -0.024638
O       0.965560   -0.269444   -1.106290
C       2.120267   -0.665091   -0.503588
N       2.148085   -0.799644    0.762290
C       0.788082   -0.491168    1.241178
C       0.825203    0.420702    2.466156
C       3.217947   -0.902369   -1.381287
C       4.136627   -1.102280   -2.128955
H       0.645944    2.136406    0.074526
H      -0.676061    1.799146   -1.054841
H      -0.987888    1.815631    0.689864
H      -0.868870   -0.520236   -0.217945
H       0.331025   -1.442739    1.544936
H       1.311254    1.374179    2.244014
H      -0.183530    0.621757    2.840403
H       1.394498   -0.067336    3.260965
H       4.954502   -1.281883   -2.782835
