18

N       0.069381    1.229900    0.483691
C      -0.039896    0.122586   -0.290444
O       0.821494   -0.226518   -1.077725
C      -1.335865   -0.696611   -0.126901
C      -1.938661   -1.040071   -1.545515
C      -1.249550   -2.425845   -1.497090
C      -0.989240   -2.230505    0.016740
C      -2.263537   -0.157025    0.847956
C      -3.041096    0.283114    1.655816
H       0.902920    1.787973    0.402247
H      -0.657649    1.494640    1.126329
H      -3.027384   -1.097411   -1.494714
H      -1.644837   -0.365125   -2.350248
H      -1.860141   -3.285380   -1.781033
H      -0.320866   -2.432923   -2.066809
H       0.015524   -2.446796    0.381604
H      -1.724373   -2.731159    0.649280
H      -3.738219    0.657165    2.364471
