14

C       0.027954    1.489945    0.035928
C      -0.005195    0.001881   -0.012402
N      -0.143068   -0.732899   -1.086885
N      -0.124214   -2.060523   -0.697024
C       0.026313   -2.093974    0.602841
C       0.101824   -3.318348    1.447220
N       0.106353   -0.812432    1.086134
H       0.970287    1.862751    0.452888
H      -0.075025    1.870058   -0.981321
H      -0.789179    1.895760    0.642997
H       1.057631   -3.387892    1.978753
H      -0.698642   -3.347040    2.195055
H       0.001983   -4.190288    0.799426
H       0.222636   -0.529264    2.044807
