10

O       0.084846    1.416504    0.178829
C       0.007627    0.022939    0.061984
C      -1.416069   -0.513340   -0.145877
O      -1.017293   -1.105807   -1.427790
C       0.243933   -0.575629   -1.342245
O       1.116526   -0.610951   -2.147630
H       0.996051    1.681280    0.009790
H       0.574378   -0.503170    0.842434
H      -1.767485   -1.280640    0.544854
H      -2.162664    0.268687   -0.292206
