18

C       0.343445    1.664461   -0.270634
C       0.159321    0.229357   -0.114896
C      -0.020909   -0.953293    0.037630
C      -0.092429   -2.387240    0.095986
C      -0.478127   -3.307196    1.204702
C      -1.688428   -2.946398    2.081176
C      -2.336699   -1.645558    1.694875
C      -2.473957   -2.840145    0.793989
N      -1.291621   -3.271863   -0.058408
H       1.338570    1.974437    0.067325
H       0.240521    1.967802   -1.318441
H      -0.394262    2.227308    0.312341
H       0.694613   -2.834418   -0.513045
H       0.141781   -4.170869    1.431272
H      -1.922463   -3.485258    2.989042
H      -3.250390   -1.446908    2.249319
H      -1.770281   -0.763316    1.438433
H      -3.430017   -3.260437    0.510866
