22

C      -0.071497    1.569810    0.085543
C       0.097496    0.053722    0.025854
C       0.806269   -0.474191   -1.231607
C       1.137374   -1.928359   -0.867961
C       1.513396   -1.885540    0.649499
C       0.945828   -0.534626    1.173127
C       0.905487   -3.081779    1.374168
N       1.765829   -4.109777    1.632625
O      -0.273608   -3.133780    1.674278
H       0.900773    2.075207    0.037065
H      -0.680087    1.937980   -0.747419
H      -0.560731    1.880139    1.015033
H      -0.893392   -0.417203    0.071697
H       0.196594   -0.392331   -2.137049
H       1.728124    0.098309   -1.405142
H       0.243555   -2.547224   -0.998440
H       1.931783   -2.363318   -1.480610
H       2.602733   -1.903237    0.759059
H       1.773663    0.145623    1.405571
H       0.360550   -0.672226    2.084429
H       2.738622   -4.074228    1.386748
H       1.402159   -4.942460    2.066377
