15

C      -0.283604    1.314741    0.350347
O      -0.164419   -0.093389    0.138091
C       0.565829   -0.482291   -0.996669
C      -0.009275    0.003118   -2.350744
O      -1.051346    0.586267   -2.455742
C       2.051405   -0.036340   -0.852421
O       2.738895    0.369277   -1.746762
C       0.596654   -1.942397   -1.057152
C       0.669331   -3.137570   -1.160191
H       0.687907    1.824781    0.284860
H      -0.976419    1.768377   -0.361343
H      -0.666285    1.429259    1.366031
H       0.628142   -0.256321   -3.217379
H       2.408351   -0.146075    0.194047
H       0.715228   -4.196691   -1.236334
