17

O       0.047535    1.374702    0.211344
C      -0.026126   -0.008144    0.013418
C      -1.475223   -0.501205   -0.114912
C      -1.435451   -2.011202   -0.293069
C      -1.686658   -2.656968   -1.640272
C      -0.289059   -2.539209   -1.112537
O       0.575957   -1.618287   -1.758951
C       0.754434   -0.385076   -1.246012
O       1.486674    0.399476   -1.793301
H       0.726371    1.691175   -0.405013
H       0.442428   -0.548450    0.855347
H      -2.036412   -0.217967    0.778634
H      -1.949535    0.002689   -0.963140
H      -1.689969   -2.598125    0.583492
H      -2.141644   -3.640246   -1.673667
H      -1.949054   -2.002693   -2.465000
H       0.253266   -3.425949   -0.804897
