16

C       0.014821    1.637004   -0.070465
C      -0.038438    0.120745   -0.021204
C       0.680998   -0.648057   -1.169741
N       1.620310   -1.144939   -0.158242
C       1.008940   -0.570407    0.920248
O       1.207074   -0.596277    2.105921
O      -1.380837   -0.349355    0.124374
C      -1.943699   -0.304568    1.360701
O      -3.082774   -0.615456    1.534950
H       1.031472    1.981160   -0.280869
H      -0.655620    2.011339   -0.849717
H      -0.294141    2.062642    0.888720
H       0.055622   -1.419545   -1.625005
H       1.137984   -0.020035   -1.939685
H       2.402902   -1.779125   -0.219252
H      -1.244648    0.018440    2.148477
