19

C       0.599465    0.535412    1.317637
C       0.088056    0.145717   -0.058150
O       0.522456    0.633527   -1.075676
C      -1.078603   -0.823614   -0.066247
C      -1.359002   -2.006780   -0.945911
C      -0.195351   -3.016848   -1.144013
C       1.081645   -2.662494   -0.438675
C      -0.078694   -3.185779    0.363607
C      -1.245297   -2.179632    0.571108
H       1.365468    1.306995    1.228820
H      -0.227624    0.900719    1.937216
H       1.008534   -0.342741    1.828652
H      -1.991813   -0.240657    0.079862
H      -2.256369   -2.056050   -1.549550
H      -0.237566   -3.785912   -1.903838
H       1.874691   -3.392086   -0.579021
H       1.449710   -1.647172   -0.374464
H      -0.013703   -4.104151    0.932414
H      -2.042018   -2.378058    1.277416
