20

C       0.598704    1.541340   -0.095574
N       1.501228    0.394651   -0.228701
C       0.045166    0.153496   -0.062649
C      -0.397163   -0.466703    1.155320
C      -0.791297   -0.987744    2.169298
C      -1.279904   -1.605188    3.384102
C      -2.235308   -0.801632    4.327898
C      -3.023433   -2.113185    4.582058
C      -2.392063   -2.702344    3.293558
H       0.695223    2.088546    0.836841
H       0.377819    2.152075   -0.967448
H       1.748681    0.258905   -1.205892
H      -0.501387   -0.152466   -0.952916
H      -0.436853   -1.992542    3.967720
H      -1.780012   -0.294480    5.181259
H      -2.821970   -0.077714    3.756791
H      -2.671693   -2.630326    5.479582
H      -4.112406   -2.047206    4.625365
H      -3.025320   -2.537713    2.418192
H      -2.064690   -3.744132    3.303287
