16

C      -0.016017    1.435834    0.100649
C      -0.007672   -0.040194   -0.061838
N      -0.083998   -0.734848   -1.159362
C      -0.030462   -2.047701   -0.715762
C       0.075679   -2.068909    0.631334
C       0.138372   -3.450732    1.177362
C       0.046803   -4.241196   -0.132344
C      -0.049128   -3.425900   -1.204597
O       0.093751   -0.793646    1.092807
H       0.902749    1.787359    0.581996
H      -0.099895    1.896202   -0.884045
H      -0.858002    1.762245    0.720259
H       1.067852   -3.672684    1.717106
H      -0.688687   -3.697891    1.855155
H       0.060970   -5.322412   -0.148906
H      -0.125969   -3.733141   -2.238620
