16

O      -0.011485   -0.015032    0.085764
C      -0.036901    1.186263    0.025402
C      -1.291412    2.082186    0.012298
C      -0.712084    3.486513   -0.068245
C       0.672157    3.436714   -0.770581
C       1.202612    4.293203    0.424946
C       1.216646    3.039999    1.210429
C       1.147217    2.137599   -0.045086
N      -0.011297    3.915112    1.203132
H      -1.903000    1.838360   -0.864390
H      -1.904356    1.911831    0.902404
H      -1.392768    4.274248   -0.391705
H       0.821262    3.582210   -1.837842
H       1.721724    5.236378    0.524771
H       1.647655    2.810544    2.175479
H       2.099019    1.701000   -0.341087
