16

C      -0.096920    1.463205   -0.059829
N      -0.029554    0.031404    0.200470
C      -1.148561   -0.747582    0.097049
C      -1.311313   -2.110879    0.008454
C      -0.257264   -3.171911   -0.044284
C      -2.722056   -2.236277   -0.001887
N      -3.363410   -1.095035    0.066958
O      -2.333151   -0.124599    0.127235
H       0.874537    1.904489    0.171884
H      -0.359021    1.702822   -1.099693
H      -0.846575    1.916368    0.591727
H       0.813120   -0.428569   -0.107965
H       0.282327   -3.277063    0.905445
H      -0.701368   -4.144419   -0.273278
H       0.491920   -2.973226   -0.821876
H      -3.301265   -3.149225   -0.059950
