18

O      -0.215200    1.397191   -0.202900
C      -0.180308   -0.002648   -0.439104
C      -1.272294   -0.628550    0.419375
C      -1.272163   -2.147875    0.315360
O      -0.273474   -2.790059    0.036657
N      -2.473662   -2.739200    0.586962
C      -2.652611   -4.182628    0.518892
C      -3.813277   -4.560537   -0.281524
C      -4.786538   -4.859755   -0.919214
H       0.500328    1.800400   -0.702643
H      -0.360418   -0.237306   -1.499356
H       0.785794   -0.445608   -0.167220
H      -1.096082   -0.352049    1.466533
H      -2.248264   -0.212911    0.145457
H      -3.284344   -2.166858    0.756130
H      -1.727776   -4.579534    0.088095
H      -2.746150   -4.611058    1.526428
H      -5.635824   -5.135178   -1.494282
