21

O      -0.041726    1.507301    0.298953
C       0.030283    0.113129    0.189394
C      -0.556765   -0.749059    1.278437
C      -1.258815   -0.616615   -0.062923
C      -2.560696    0.135969   -0.164994
C      -3.078032    0.587741   -1.578671
C      -4.401636   -0.137429   -1.306944
C      -4.144100   -1.598529   -1.075182
C      -3.879044   -0.629279    0.044996
H       0.564029    1.780522    0.995404
H       0.922490   -0.252629   -0.319326
H      -0.069519   -1.683871    1.534067
H      -1.007710   -0.226981    2.116814
H      -1.176515   -1.477338   -0.721446
H      -2.518592    1.007089    0.491659
H      -3.168060    1.672847   -1.657568
H      -2.510453    0.223675   -2.442284
H      -5.386744    0.236811   -1.557465
H      -5.027748   -2.215509   -0.944887
H      -3.330096   -2.103149   -1.591565
H      -4.403702   -0.710309    0.990181
