19

C      -0.108554    1.493094    0.003610
C       0.055667   -0.004379    0.029572
O      -1.233403   -0.627086   -0.145459
C      -1.157600   -1.980045    0.332191
C       0.217185   -2.107411    0.961539
C       1.429487   -1.664723    0.167466
C       0.764942   -0.734836    1.190527
C       1.045780   -0.702522   -0.963306
O       0.506230   -1.173900   -2.168216
H       0.858443    1.986380    0.135225
H      -0.530851    1.813158   -0.953770
H      -0.781703    1.821207    0.801415
H      -1.953463   -2.139417    1.070537
H      -1.311950   -2.679105   -0.499340
H       0.383054   -2.878746    1.704740
H       2.371579   -2.192864    0.257310
H       1.126498   -0.322965    2.122386
H       1.896603   -0.051859   -1.194926
H      -0.452734   -1.165504   -2.042174
