18

C       0.337992    1.367826   -0.718151
C       0.042510    0.298611    0.316154
O       0.859568   -0.049490    1.138642
C      -1.347016   -0.277146    0.266301
N      -1.545506   -1.632441    0.810356
C      -2.160166   -0.514517    1.515203
C      -1.648479   -0.223214    2.911404
C      -2.164529   -1.246366    3.901920
O      -2.721073   -0.981130    4.936384
H       1.340284    1.767304   -0.562644
H       0.261277    0.947383   -1.727956
H      -0.399255    2.176767   -0.655116
H      -1.923565    0.002584   -0.612965
H      -2.226874   -2.131497    0.244881
H      -3.231731   -0.365993    1.383463
H      -0.554508   -0.291788    2.897517
H      -1.944643    0.775387    3.244966
H      -1.981178   -2.300906    3.597151
