18

C       0.065248    1.179356    0.456011
O       0.110959   -0.190264    0.125162
C      -1.167335   -0.768710   -0.034857
C      -0.964335   -2.252282   -0.303182
N      -0.250192   -2.880185    0.789933
C      -0.654601   -4.014002    1.396239
O      -1.636802   -4.682550    1.120373
C       0.266281   -4.440946    2.543699
O       1.246886   -3.828378    2.879323
H       1.096366    1.524304    0.560133
H      -0.430741    1.769532   -0.329727
H      -0.467004    1.351073    1.404201
H      -1.773517   -0.624944    0.874529
H      -1.707014   -0.305664   -0.877184
H      -1.923274   -2.764722   -0.407922
H      -0.405675   -2.373382   -1.239991
H       0.581560   -2.430698    1.147373
H      -0.070551   -5.376142    3.033400
