22

C      -0.065713    1.532594    0.114905
C      -0.050333    0.004111    0.016523
C       0.610813   -0.525118   -1.262356
C       0.735986   -2.043454   -1.340718
C      -0.449360   -2.835525   -1.761640
N       0.607608   -2.504829   -2.736854
C       0.315359   -1.303392   -3.539301
C      -0.084369   -0.145204   -2.594428
O      -1.494184   -0.059866   -2.377756
H       0.945506    1.949254    0.039425
H      -0.673789    1.967539   -0.683457
H      -0.487026    1.859789    1.070602
H       0.490052   -0.412876    0.875833
H      -1.073204   -0.378475    0.074670
H       1.629994   -0.116141   -1.313937
H       1.514683   -2.514940   -0.746427
H      -0.501340   -3.891387   -1.510451
H      -1.404131   -2.326611   -1.839052
H       1.230938   -1.040793   -4.082813
H      -0.463178   -1.512063   -4.282374
H       0.284634    0.818002   -2.971861
H      -1.910242    0.137673   -3.222540
