18

C      -0.042616    1.431626    0.078587
C       0.069752   -0.077523    0.019075
C       0.704725   -0.656310   -1.225477
C       1.450830   -0.660404    0.115120
N       1.441485   -2.150084    0.130441
C       0.774861   -2.195420   -1.211214
C      -0.344900   -3.097651   -0.634270
C       0.340877   -2.841076    0.733365
O       0.070634   -3.041467    1.879245
H       0.824762    1.913073   -0.385601
H      -0.936662    1.780578   -0.448457
H      -0.103196    1.778002    1.115043
H      -0.751339   -0.602263    0.501971
H       0.889737   -0.044268   -2.099546
H       2.318839   -0.107364    0.452633
H       1.380385   -2.617359   -2.015986
H      -1.368158   -2.718826   -0.678702
H      -0.330642   -4.134230   -0.979369
