23

C       0.008386    1.469822    0.147564
C      -0.062643   -0.058662    0.115005
C      -1.489302   -0.571831   -0.022793
O      -1.466674   -1.984477   -0.040996
C      -2.743832   -2.567801   -0.165036
C      -2.582477   -4.074566   -0.134748
C      -2.232751   -4.677466    1.242284
O      -3.529385   -5.306677    1.345669
C      -3.891005   -4.879792    0.017573
H       1.042151    1.812846    0.246689
H      -0.400062    1.908976   -0.769421
H      -0.558892    1.878461    0.991128
H       0.529730   -0.449910   -0.720048
H       0.370968   -0.479654    1.029389
H      -2.110411   -0.210540    0.815596
H      -1.948390   -0.185235   -0.949741
H      -3.401174   -2.242688    0.661119
H      -3.227746   -2.251952   -1.106269
H      -1.931768   -4.391496   -0.952234
H      -1.420047   -5.414390    1.241228
H      -2.056349   -3.952870    2.046089
H      -4.820681   -4.294965    0.010172
H      -4.002819   -5.726741   -0.671535
