21

C      -0.070104    1.444932   -0.174910
C       0.035789   -0.047384    0.019135
N       1.394927   -0.628266   -0.039332
C       0.654070   -0.662012    1.219547
C       1.116361   -0.002369    2.527047
C       0.451632   -1.174140    3.320109
C       0.176725   -1.887577    1.989114
C      -0.831218   -2.900764    1.614001
N       0.594524   -3.269136    1.746060
H       0.766692    1.956489    0.307432
H      -0.051477    1.700927   -1.239711
H      -1.004653    1.829147    0.248659
H      -0.763567   -0.625161   -0.445327
H       1.380851   -1.540892   -0.492721
H       2.204482    0.026963    2.618921
H       0.718270    0.995670    2.724233
H       1.107574   -1.725416    3.996189
H      -0.454692   -0.883587    3.857503
H      -1.484279   -3.327542    2.371163
H      -1.270518   -2.850936    0.619697
H       1.021558   -3.356128    0.824949
