10

F       0.032596    0.028584    0.002576
C      -0.027982    1.350126    0.010529
C      -1.206217    1.996605    0.030099
O      -1.234121    3.354280    0.037796
C      -0.080949    4.109435    0.026136
O      -0.125635    5.303948    0.033123
C       1.139369    3.269379    0.004947
F       2.262670    3.947081   -0.006801
N       1.169946    1.995762   -0.002344
H      -2.183593    1.537489    0.040968
