18

C      -0.247254    1.579323   -0.048535
C      -0.028468    0.092686   -0.038597
C       0.014131   -0.641689    1.280949
C       1.371896   -0.502961    2.018375
O       1.693905    0.848618    2.341355
C       1.397544   -1.353371    3.211165
C       1.377200   -2.021484    4.210432
N       0.135714   -0.651049   -1.066721
O       0.113678    0.065476   -2.272737
H       0.548798    2.068461    0.520052
H      -0.274723    1.972264   -1.063138
H      -1.192668    1.818843    0.453186
H      -0.779260   -0.278167    1.945947
H      -0.160960   -1.704905    1.098276
H       2.161093   -0.822353    1.328094
H       1.171169    1.094381    3.113005
H       1.381339   -2.620413    5.087732
H       0.225948   -0.636397   -2.921897
