22

C      -0.116684    1.516294    0.010558
C      -0.039989   -0.016916    0.005717
C      -1.468243   -0.541393   -0.170651
C       1.108829   -0.610505   -0.894799
C       2.091516   -0.255405    0.259549
C       0.864211   -0.629198    1.141757
C       0.783666   -2.146952    0.875311
C       0.970800   -2.132654   -0.682515
H       0.846091    2.014536    0.131099
H      -0.556250    1.876138   -0.927078
H      -0.767065    1.860059    0.823390
H      -1.898468   -0.166274   -1.106814
H      -1.543063   -1.629113   -0.189785
H      -2.108650   -0.182609    0.643817
H       1.265505   -0.259624   -1.916887
H       2.982297   -0.882730    0.360788
H       2.382830    0.791674    0.304145
H       0.773649   -0.297226    2.178060
H       1.585250   -2.687694    1.386753
H      -0.164047   -2.591191    1.189554
H       0.125447   -2.569102   -1.220238
H       1.871888   -2.665772   -0.999274
