15

N       0.098457    1.332384    0.166041
C      -0.054099   -0.024464    0.055860
N      -1.194654   -0.605959    0.047812
C      -1.182389   -1.989217   -0.000097
C      -0.048160   -2.733214   -0.050505
N       0.023882   -4.117461   -0.171122
C       1.228403   -2.036094   -0.025832
N       2.349537   -2.633846   -0.031584
O       1.153914   -0.649201    0.013739
H       0.955075    1.713833   -0.203791
H      -0.737563    1.854879   -0.043939
H      -2.159345   -2.462906   -0.004737
H      -0.737745   -4.623483    0.256490
H       0.933672   -4.472270    0.094199
H       3.126715   -1.976083    0.002567
