23

C       0.486284    1.340090    0.031016
C      -0.234195   -0.035502   -0.000659
C      -1.763098    0.219500    0.098057
C       0.051720   -0.652546   -1.352358
C       0.790371   -1.697737   -1.721855
C       1.556408   -2.668394   -0.861555
C       0.817777   -3.135532    0.401699
C       0.569008   -2.059192    1.425755
C       0.166349   -0.802987    1.240339
H       1.571495    1.212429   -0.012753
H       0.180494    1.958362   -0.819477
H       0.240654    1.885429    0.949162
H      -2.103880    0.857143   -0.725350
H      -2.318325   -0.721706    0.056127
H      -2.013106    0.721978    1.038332
H      -0.411146   -0.082207   -2.158696
H       0.861574   -1.881507   -2.792689
H       1.804558   -3.548353   -1.466095
H       2.518910   -2.228135   -0.566102
H      -0.134291   -3.596817    0.104526
H       1.401989   -3.934880    0.871925
H       0.739115   -2.362101    2.457661
H       0.046626   -0.198944    2.140620
