18

O      -0.114102    1.401734    0.012706
C      -0.046644   -0.015980    0.004789
C      -1.453770   -0.535670    0.011614
C      -2.557447   -0.267390   -1.057898
C      -3.221239   -1.179933    0.020444
C      -1.908377   -2.026315    0.008805
C      -2.543606   -0.275780    1.097261
C      -4.573517   -1.678476    0.027103
N      -5.658906   -2.078017    0.033272
H       0.783176    1.747691    0.008183
H       0.477870   -0.392087   -0.888893
H       0.489907   -0.401463    0.887262
H      -2.935851    0.753624   -1.125869
H      -2.410467   -0.718081   -2.042416
H      -1.716722   -2.601772   -0.900087
H      -1.705100   -2.608676    0.910752
H      -2.384018   -0.734114    2.076271
H      -2.920971    0.744678    1.178022
