16

N      -0.005714    1.406739    0.166129
C       0.001039    0.012883    0.049070
C      -1.202499   -0.706280    0.050654
C      -1.168681   -2.094475   -0.003085
C       0.032986   -2.790133   -0.059383
C       1.241317   -2.079058   -0.063079
N       2.460726   -2.753807   -0.182792
C       1.212843   -0.682230   -0.008300
H       0.808652    1.863212   -0.219359
H      -0.854631    1.845270   -0.160906
H      -2.148705   -0.177096    0.099472
H      -2.102568   -2.648271   -0.001041
H       0.043293   -3.874306   -0.106153
H       2.439377   -3.708410    0.146139
H       3.253137   -2.257464    0.199158
H       2.148101   -0.127620   -0.010346
