15

C      -0.024071    1.494971   -0.034507
C      -0.000142   -0.006722   -0.005628
N      -0.046072   -0.635240   -1.142693
N      -0.024072   -1.983725   -1.106800
C       0.042921   -2.824277    0.009978
N       0.060894   -4.108766   -0.016061
C       0.092223   -2.074181    1.254232
C       0.071544   -0.725982    1.245089
H       0.875016    1.913146    0.433186
H      -0.079689    1.848023   -1.065216
H      -0.885429    1.886745    0.519150
H      -0.062283   -2.407688   -2.021897
H       0.019744   -4.467996   -0.971707
H       0.145312   -2.658573    2.164618
H       0.108187   -0.161746    2.171605
