22

C      -0.440657    1.381041   -0.182731
C      -0.065624   -0.098468   -0.134144
C       0.712398   -0.549244   -1.365098
O       0.845685    0.135063   -2.358601
N       1.338045   -1.781416   -1.231677
C       0.752774   -3.052759   -0.857565
C       1.395641   -2.850727   -2.209770
C       0.497471   -2.767897   -3.428699
C       2.776287   -3.423053   -2.462249
H       0.453303    2.009967   -0.206657
H      -1.018036    1.604401   -1.082582
H      -1.034073    1.657819    0.693379
H       0.525420   -0.336722    0.757648
H      -0.968062   -0.721473   -0.061762
H       1.272038   -3.611295   -0.081798
H      -0.332705   -3.126322   -0.821913
H      -0.507356   -2.426481   -3.167469
H       0.905424   -2.063342   -4.158360
H       0.415479   -3.751987   -3.901619
H       2.705976   -4.450299   -2.835704
H       3.306148   -2.826409   -3.212170
H       3.372116   -3.423613   -1.546276
