19

O      -0.028317    1.381485   -0.032729
C       0.027358   -0.029608   -0.009095
C       0.614315   -0.615388    1.300180
O       0.052264   -1.921440    1.409849
C      -0.977099   -2.074413    0.412667
C      -1.378817   -0.640311    0.059267
C      -0.391636   -2.796379   -0.813862
C       0.547380   -1.889136   -1.571823
C       0.743645   -0.621395   -1.210390
H       0.870780    1.718244   -0.110487
H       1.707714   -0.693785    1.285513
H       0.312051    0.015722    2.148640
H      -1.783804   -2.662140    0.859519
H      -1.957094   -0.174114    0.861830
H      -1.924517   -0.553791   -0.881968
H       0.138904   -3.692129   -0.467863
H      -1.196934   -3.152054   -1.473430
H       1.063968   -2.303314   -2.433943
H       1.425559    0.027121   -1.755707
