18

C      -0.144021    1.547092   -0.042427
C       0.021124    0.028228   -0.014026
C       0.740566   -0.491752   -1.252763
O       0.857616   -1.924458   -1.228047
C       1.009345   -2.488177   -0.011136
N       1.007696   -1.961405    1.140540
C       0.785119   -0.506843    1.224222
C       2.062239    0.179839    1.437517
C       3.111239    0.745664    1.594710
H       0.826224    2.050007   -0.086746
H      -0.734391    1.858602   -0.910492
H      -0.660806    1.899429    0.855804
H      -0.970774   -0.440260    0.017661
H       0.198540   -0.254141   -2.171356
H       1.747776   -0.061329   -1.317757
H       1.138201   -3.563906   -0.118715
H       0.162994   -0.338197    2.112685
H       4.040799    1.235351    1.750101
