19

C       0.954527    0.959860    0.497744
C       0.457210   -0.398668    0.327405
C       0.032222   -1.519722    0.199668
C      -0.474750   -2.889173    0.023875
C      -1.824726   -2.891065   -0.709588
N       0.433640   -3.821414   -0.670586
C       1.261194   -3.316235   -1.761284
C       1.870300   -3.702785   -0.457677
H       2.045513    0.975416    0.595617
H       0.688917    1.594125   -0.355143
H       0.536307    1.423093    1.398238
H      -0.626779   -3.323109    1.021277
H      -2.188519   -3.917520   -0.800708
H      -2.559834   -2.292842   -0.165254
H      -1.714137   -2.469273   -1.712740
H       1.338786   -3.967465   -2.627251
H       1.225156   -2.251423   -1.980399
H       2.230261   -2.889012    0.167958
H       2.402972   -4.643487   -0.349121
