22

C      -0.013995    1.574072   -0.035251
C       0.038439    0.037012    0.026801
C       0.653176   -0.522301   -1.268847
C       0.969855   -2.014842   -1.161807
C       1.986094   -2.258706   -0.039949
C       1.628230   -1.494869    1.207201
C       0.757459   -0.481965    1.265718
C       0.412716    0.165108    2.583755
H       0.995407    2.001024   -0.026857
H      -0.505510    1.898071   -0.958705
H      -0.568900    2.004920    0.802314
H      -1.004798   -0.315372    0.088986
H      -0.025963   -0.326105   -2.106783
H       1.580603    0.026459   -1.485717
H       0.047136   -2.567387   -0.941498
H       1.349014   -2.399915   -2.114712
H       2.051232   -3.329568    0.191485
H       2.994370   -1.972849   -0.377458
H       2.112541   -1.818830    2.127248
H       0.893760   -0.355652    3.416049
H       0.721093    1.216489    2.622749
H      -0.671273    0.153345    2.760361
