19

C      -0.116260    1.369688    0.110822
O       0.420281    0.093051   -0.148376
C       0.796003   -0.593103    1.010671
C      -0.295663   -1.203654    1.967405
C       0.400535   -2.559598    1.808744
C       0.344787   -3.004856    0.364283
C      -0.775547   -2.767621   -0.503679
C      -1.731260   -2.632564   -1.221286
C       1.380980   -1.978112    0.787428
H       0.602896    2.012865    0.643725
H      -0.350472    1.826253   -0.853564
H      -1.037895    1.316004    0.709431
H       1.494734    0.018827    1.603340
H      -0.256895   -0.794893    2.978547
H      -1.322719   -1.168716    1.594952
H       0.595000   -3.268619    2.603617
H       0.805829   -3.979195    0.215206
H      -2.560229   -2.487515   -1.868281
H       2.433800   -2.189134    0.642418
