21

C       0.019551    1.502848   -0.012614
N      -0.005420    0.063961    0.134466
C      -1.259401   -0.607164    0.522675
C      -0.433356   -1.628899    1.359243
C      -0.938033   -1.946625    2.759802
C      -0.103835   -2.894298    0.569400
C       0.699130   -0.538422    1.276063
C       2.081760   -0.948027    1.032742
N       3.173366   -1.284833    0.855560
H       1.042385    1.835324   -0.215930
H      -0.604130    1.792931   -0.863941
H      -0.348960    2.037453    0.883016
H      -1.908495    0.018370    1.157389
H      -1.846536   -0.995943   -0.316024
H      -1.845693   -2.558348    2.711160
H      -0.190074   -2.511819    3.326869
H      -1.175717   -1.038690    3.322801
H       0.255093   -2.650918   -0.434095
H       0.668642   -3.484840    1.072186
H      -0.998335   -3.518905    0.472748
H       0.684916    0.096910    2.178537
