23

C       0.375857    1.175904    0.611469
C      -0.064331   -0.147959   -0.025026
C      -1.591980   -0.160439   -0.246914
O      -2.336865   -0.111333    0.961556
C       0.665352   -0.519458   -1.324838
C       0.672517   -2.032078   -1.563531
O       1.241171   -2.436241   -2.798235
C       0.558969    0.369139   -2.540862
C       1.872177    0.251237   -1.807284
H       1.431055    1.157311    0.895550
H       0.220664    2.026317   -0.063167
H      -0.196136    1.365169    1.525601
H       0.142356   -0.942511    0.706531
H      -1.873028    0.663082   -0.920995
H      -1.894166   -1.090251   -0.737174
H      -2.299210    0.787195    1.300514
H       1.179084   -2.523943   -0.717812
H      -0.355519   -2.410351   -1.581057
H       2.197913   -2.391378   -2.716042
H       0.480276   -0.120567   -3.504391
H       0.016146    1.304586   -2.456516
H       2.219376    1.101004   -1.232762
H       2.670078   -0.295783   -2.299193
