19

C       0.264252    1.083111   -0.541734
C       0.169534   -0.158034    0.346024
O       0.260148    0.198099    1.733329
C      -1.186111   -0.851779    0.232265
C      -2.020407   -1.196073   -0.978599
C      -1.230556   -1.872141   -2.137712
O       0.162629   -1.926290   -1.800520
C      -0.729827   -2.906449   -1.242705
C      -1.507574   -2.295443   -0.034439
H       1.213024    1.605684   -0.371265
H       0.218721    0.806990   -1.598074
H      -0.551744    1.778190   -0.319287
H       0.974040   -0.851410    0.089015
H       1.118976    0.610134    1.869636
H      -1.836356   -0.465462    1.016888
H      -3.038391   -0.846850   -1.097112
H      -1.495725   -1.887065   -3.187836
H      -0.489803   -3.950213   -1.403718
H      -2.083333   -2.908135    0.647441
