17

O       0.035954    1.373699   -0.052278
C      -0.019290   -0.042195    0.047770
C      -1.493269   -0.451387    0.081801
C      -2.248604   -0.056799   -1.200536
C      -1.489792   -0.377469   -2.478607
O      -0.520633    0.576923   -2.890335
C      -0.039342   -0.700925   -2.456817
C       0.674065   -0.736470   -1.136865
O       1.718520   -1.334791   -1.005322
H       0.956406    1.637911   -0.152363
H       0.494883   -0.396737    0.952380
H      -1.537611   -1.538502    0.220978
H      -1.967940    0.004325    0.956588
H      -3.218189   -0.564386   -1.221604
H      -2.447040    1.019185   -1.198374
H      -2.068796   -0.793296   -3.303526
H       0.409103   -1.322667   -3.229822
