18

C      -0.042855    1.401879   -0.194801
C       1.357895    1.997983   -0.013228
N       2.045369    1.536842    1.202000
C       1.297450    1.536826    2.467859
C       0.347158    0.319637    2.488959
C       1.816218    0.196552    2.870854
C       2.097126    0.047520    1.338292
C       0.616231   -0.400738    1.164905
O      -0.044022   -0.009905   -0.013858
H      -0.745863    1.869770    0.510464
H      -0.413770    1.583601   -1.207988
H       1.994414    1.719941   -0.862007
H       1.294340    3.092612    0.006301
H       1.126167    2.429228    3.056889
H      -0.521591    0.263847    3.131452
H       2.309938   -0.164855    3.758878
H       2.918970   -0.465417    0.840929
H       0.499142   -1.482513    1.257417
