17

C       0.013824    1.470416    0.031304
C      -0.052287   -0.015487   -0.034623
C      -0.084531   -0.846271   -1.081664
C      -0.027931   -2.252224   -0.495550
O      -0.698244   -2.092809    0.760443
C       0.029354   -0.932067    1.195828
C       1.475577   -1.492016    1.252000
C       1.442891   -2.384282   -0.009212
O       2.332544   -3.024511   -0.496186
H       0.932018    1.800232    0.535592
H      -0.005641    1.921020   -0.964084
H      -0.822524    1.879200    0.611900
H      -0.043988   -0.606257   -2.135069
H      -0.418259   -3.087723   -1.071428
H      -0.380945   -0.552774    2.131520
H       2.271922   -0.746266    1.208366
H       1.627799   -2.119819    2.134626
