20

C      -0.162036    1.532421   -0.032269
C       0.051569    0.018702   -0.002877
C       0.770984   -0.493602    1.268661
O       0.081137   -0.080824    2.449562
C       0.927697   -2.028223    1.224568
C       1.630804   -2.623341    2.439978
O       1.586743   -4.034324    2.286865
C       2.107250    0.136989    1.356084
N       3.161220    0.609059    1.376414
H       0.793013    2.065241   -0.058104
H      -0.733184    1.819590   -0.919352
H      -0.708225    1.865879    0.853587
H      -0.913443   -0.503614   -0.048242
H       0.621158   -0.307311   -0.880058
H      -0.794193   -0.484476    2.418830
H      -0.076417   -2.464943    1.149800
H       1.466535   -2.317072    0.316328
H       2.666134   -2.255318    2.488306
H       1.120717   -2.297532    3.357307
H       2.058841   -4.429616    3.025384
