17

C       0.141588    1.411780    0.280107
N       0.003306    0.019894   -0.152396
C      -1.296249   -0.509750   -0.103438
C      -1.919880   -0.997636    1.191127
C      -1.792314   -1.933111    0.031372
O      -2.872316   -1.733791   -0.893947
C      -2.432527   -0.380472   -1.159336
C      -3.472973    0.625313   -0.948838
N      -4.271118    1.441330   -0.765112
H       1.198493    1.690399    0.255529
H      -0.421981    2.133240   -0.331436
H      -0.209046    1.501014    1.312411
H       0.438790   -0.130721   -1.055280
H      -1.186478   -1.140166    1.977756
H      -2.902168   -0.661664    1.509178
H      -1.290730   -2.892208    0.022359
H      -2.043871   -0.300560   -2.182198
