19

O       0.068519    1.392223    0.192470
C       0.049874    0.002053   -0.067524
C      -1.355611   -0.502758   -0.045166
C      -2.457641    0.212948    0.180700
C      -3.722079   -0.618455    0.072977
C      -3.168457   -2.072787    0.026944
C      -1.674482   -1.946609   -0.359801
C      -4.641717   -0.406454    1.260090
O      -5.765741    0.019147    1.205643
H       0.983353    1.686969    0.187811
H       0.499546   -0.233119   -1.049282
H       0.642339   -0.556873    0.679223
H      -2.469316    1.277338    0.376960
H      -4.295773   -0.358971   -0.825441
H      -3.247419   -2.520359    1.024780
H      -3.738680   -2.707480   -0.654421
H      -1.508255   -2.152060   -1.426759
H      -1.041748   -2.654421    0.189267
H      -4.174272   -0.682095    2.236449
