20

C      -0.009466    1.648099    0.156068
C       0.034252    0.126118    0.059199
C      -1.376754   -0.459440   -0.180871
C      -1.963249   -0.057128   -1.454027
C      -2.420442    0.277090   -2.514668
C       1.086010   -0.532485   -0.884503
N       1.642904   -1.392596    0.221913
C       2.192976   -0.444221    1.206038
C       0.732676   -0.646818    1.187315
H       0.984670    2.069982    0.326414
H      -0.407980    2.081983   -0.766366
H      -0.655113    1.968402    0.982283
H      -1.320286   -1.554441   -0.138105
H      -2.036198   -0.152181    0.642253
H      -2.837564    0.566274   -3.447320
H       0.651135   -1.148405   -1.673895
H       1.830205    0.138187   -1.327400
H       2.751294   -0.932070    1.999595
H       2.629725    0.488210    0.854950
H       0.212762   -1.164662    1.989687
