19

C       0.033707    1.472818    0.139882
C       1.280770    0.675293   -0.069461
O       1.713248    0.077754    1.154751
C       0.490049   -0.734796    1.205367
C       0.794649   -2.233597    1.072485
C       0.779016   -2.695742    2.530941
O      -0.280297   -1.950631    3.119567
C      -0.224935   -0.640012    2.571865
C      -0.049130   -0.032220   -0.039151
H      -0.153940    1.936681    1.103901
H      -0.309046    2.041859   -0.719099
H       2.015864    0.832347   -0.849470
H      -0.014858   -2.724568    0.520864
H       1.737822   -2.404701    0.551174
H       0.558557   -3.757543    2.664846
H       1.740182   -2.471705    3.021479
H       0.353456    0.036035    3.217240
H      -1.247714   -0.259611    2.488562
H      -0.620257   -0.508478   -0.824957
