21

C       0.004184    1.609565    0.037527
C       0.039783    0.080774    0.064081
C      -1.363602   -0.538381   -0.002144
O      -2.054210   -0.229330   -1.209813
C      -1.943826   -1.340282   -2.103202
C      -1.985997   -2.590095   -1.217566
C      -1.357206   -3.866997   -1.764149
C      -1.310839   -2.068713    0.053451
O      -0.799950   -2.727617    0.921722
H       1.015372    2.027053    0.044383
H      -0.509200    1.965737   -0.859799
H      -0.528937    2.005939    0.908799
H       0.637940   -0.296059   -0.775219
H       0.517349   -0.288538    0.978687
H      -1.966364   -0.159685    0.834063
H      -2.769061   -1.269946   -2.815430
H      -0.998453   -1.301959   -2.668630
H      -3.033377   -2.777397   -0.937946
H      -0.338047   -3.681446   -2.119148
H      -1.301918   -4.621665   -0.975288
H      -1.937896   -4.274021   -2.596815
