17

C      -0.015328    1.434699   -0.082082
N      -0.007156   -0.020373    0.020785
C       1.308431   -0.639620    0.067050
C      -1.180610   -0.685934   -0.023935
O      -2.278218   -0.148913   -0.085251
C      -1.182115   -2.250111    0.011551
O      -2.498372   -2.684764    0.127665
C      -0.541224   -2.779809   -1.213427
N      -0.023149   -3.182112   -2.164926
H       0.522760    1.753927   -0.982093
H      -1.047145    1.775739   -0.133959
H       0.475820    1.876574    0.791906
H       1.250284   -1.692957    0.333819
H       1.815093   -0.562372   -0.902067
H       1.918990   -0.131542    0.821028
H      -0.598570   -2.602552    0.873245
H      -3.025805   -1.874170   -0.014984
