16

C       0.008311    1.489125    0.102881
N       1.460588    1.852120    0.044070
C       2.093171    0.867373   -0.485919
N       1.300811   -0.180278   -0.969987
C       1.051042   -1.561947   -0.440151
C       0.493812   -1.088135    0.938202
N      -0.829888   -1.776821    0.816762
C      -0.516821   -1.370858   -0.587251
C       0.081809   -0.000404   -0.131948
H      -0.415642    1.764546    1.070123
H      -0.531572    2.031674   -0.683303
H       3.163072    0.896660   -0.671010
H       1.657883   -2.431728   -0.696382
H       1.019213   -0.953463    1.884044
H      -0.714335   -2.787747    0.924531
H      -1.149821   -1.587454   -1.447212
