23

C       0.242507    1.526477    0.311706
C      -0.012905    0.032676    0.031772
C       0.577509   -0.775658    1.208143
C      -1.541097   -0.179308   -0.042097
C       0.632327   -0.443843   -1.288911
C       0.721970    0.456666   -2.521468
C       1.968931    0.107232   -1.786525
C       0.439655   -1.883341   -1.647080
O       0.883740   -2.403646   -2.645065
H       1.307472    1.753662    0.412642
H      -0.176871    2.172013   -0.465060
H      -0.237304    1.804472    1.255654
H       0.137829   -0.448934    2.156505
H       0.386181   -1.848690    1.113469
H       1.661364   -0.634125    1.272424
H      -1.973303    0.389830   -0.871665
H      -1.809154   -1.230588   -0.183306
H      -2.019897    0.157353    0.883576
H       0.547031   -0.032945   -3.472454
H       0.333708    1.463907   -2.436545
H       2.451011    0.870677   -1.188845
H       2.632982   -0.617570   -2.243032
H      -0.154603   -2.485141   -0.928693
