19

C       0.023799    1.493676    0.165143
C       0.048644    0.046982    0.004314
C       0.070564   -1.148079   -0.135549
C       0.086982   -2.596136   -0.293382
C      -1.292343   -3.231643   -0.126298
O      -2.149214   -2.866758   -1.192562
C      -2.940786   -4.001813   -1.530688
C      -2.441164   -5.104569   -0.575832
O      -1.164479   -4.632893   -0.175959
H       0.940045    1.858545    0.642693
H      -0.070808    2.000937   -0.801391
H      -0.820878    1.809502    0.787480
H       0.460355   -2.881848   -1.283414
H       0.750574   -3.056366    0.448762
H      -1.748071   -2.924247    0.832866
H      -4.006141   -3.783333   -1.391605
H      -2.769093   -4.254688   -2.583367
H      -3.107397   -5.210467    0.293327
H      -2.319594   -6.080283   -1.050674
