15

C      -0.025966    1.525387    0.028174
C       0.091062    0.034406    0.015666
N      -0.799918   -0.862689    0.743394
C       0.677999   -0.912504    1.036999
C       1.256336   -1.768160   -0.053356
O       2.035801   -2.664048   -0.112941
C       0.630050   -0.816982   -1.161910
C      -0.313008   -1.341246   -2.128506
N      -1.062968   -1.753710   -2.905526
H       0.893363    1.996797   -0.332605
H      -0.849174    1.853233   -0.615529
H      -0.222176    1.891465    1.041019
H      -1.220236   -0.338985    1.512419
H       1.051035   -0.738916    2.038049
H       1.466005   -0.326271   -1.672207
