17

O      -0.083774    1.374842    0.069202
C      -0.093188   -0.001242    0.102856
C      -0.471824   -0.899870   -1.043216
C      -1.189955   -1.057549    0.286231
C      -0.331216   -1.818202    1.289315
C       0.793546   -0.740792    1.098459
O      -2.573212   -0.898732    0.411920
C      -3.365374   -1.747993   -0.287456
O      -4.555485   -1.711913   -0.220356
H      -0.500419    1.680785   -0.742173
H      -1.083062   -0.408674   -1.798016
H       0.193657   -1.666722   -1.438771
H      -0.755727   -1.796673    2.294819
H      -0.074514   -2.849916    1.027638
H       1.755613   -1.091766    0.713870
H       0.957767   -0.155175    2.004736
H      -2.785484   -2.449793   -0.914249
