20

C      -0.029080    1.399239   -0.046516
O       0.007429   -0.006983   -0.004224
C      -1.274503   -0.592272    0.029986
C      -1.122389   -2.110975    0.121110
C      -0.372650   -2.523407    1.394448
C      -2.504222   -2.786446    0.024761
C      -2.399928   -4.284553   -0.152785
O      -2.978300   -5.105913    0.509799
H       1.004331    1.753168   -0.070461
H      -0.551872    1.767763   -0.943481
H      -0.529934    1.822236    0.838746
H      -1.846863   -0.215988    0.897213
H      -1.843690   -0.319696   -0.876104
H      -0.527845   -2.420150   -0.750173
H      -0.947084   -2.250989    2.287870
H      -0.204051   -3.604404    1.428543
H       0.594706   -2.020031    1.445491
H      -3.120848   -2.580571    0.905584
H      -3.035883   -2.400828   -0.858479
H      -1.723294   -4.594411   -0.985349
