20

C       0.330291    1.329362    0.491229
C       0.014129   -0.053263    0.018634
C       0.615644   -0.890083   -1.141694
C      -0.272610   -1.812545   -0.281241
O       0.319839   -1.200033    0.928945
C      -1.372913   -0.695858   -0.283969
N      -2.416049   -0.566185    0.692666
C      -3.446498   -1.601414    0.737882
C      -2.473365   -1.446104    1.853943
H       1.387850    1.414014    0.758146
H       0.110935    2.055194   -0.298197
H      -0.277271    1.577950    1.365913
H       0.307875   -0.661758   -2.165694
H       1.683677   -1.086290   -1.046459
H      -0.353412   -2.899594   -0.302181
H      -1.787162   -0.455766   -1.268810
H      -4.468815   -1.245690    0.833410
H      -3.325193   -2.470583    0.093123
H      -1.704736   -2.201600    1.968960
H      -2.778310   -0.965154    2.779372
