18

C      -0.188896    1.514866   -0.101891
C       0.017441   -0.005535    0.021970
C       0.896797   -0.346465    1.238553
O      -1.241165   -0.672579    0.115154
C       0.625934   -0.555170   -1.234047
C       0.235370   -1.455398   -2.166958
N       1.228831   -1.574604   -3.136972
C       2.147538   -0.757449   -2.747608
O       1.864865   -0.094060   -1.598111
H       0.760908    2.028112   -0.274986
H      -0.863722    1.732851   -0.933178
H      -0.627187    1.912705    0.820636
H       0.451698    0.063079    2.152665
H       0.981487   -1.430641    1.345006
H       1.899257    0.076504    1.130461
H      -1.678830   -0.354760    0.911420
H      -0.680158   -2.019945   -2.208678
H       3.096424   -0.537051   -3.210519
