16

O       0.034196    0.079517    0.642460
C      -0.022486    1.149786    0.107917
C      -1.316379    1.905171   -0.162832
C      -1.115590    3.241426   -0.853788
C      -0.073003    3.299895   -2.007288
N       0.043052    4.782805   -1.729770
C       0.066804    4.127492   -0.366131
C       1.015722    3.035565   -0.931539
O       1.120432    1.766255   -0.300364
H      -1.957114    1.242978   -0.755779
H      -1.824563    2.027630    0.800174
H      -2.039072    3.788644   -1.051082
H      -0.150256    2.898012   -3.018493
H       0.986811    5.105455   -1.972872
H       0.154374    4.701299    0.557498
H       2.034455    3.344871   -1.174311
