21

C      -0.133887    1.549695    0.025168
C      -0.008980    0.048405   -0.027875
C       0.029589   -0.620532   -1.183450
C       0.064299   -2.120334   -1.309936
C      -0.354526   -2.805689   -0.005020
C       0.365791   -2.169129    1.185896
C       0.035223   -0.664543    1.316530
C       1.092310   -0.037287    2.213233
O       0.900314    0.403419    3.316077
H       0.717282    2.016581    0.536570
H      -0.202063    1.979665   -0.977339
H      -1.028380    1.848520    0.586943
H       0.004134   -0.053726   -2.112592
H      -0.591933   -2.432151   -2.131807
H       1.073361   -2.448345   -1.602493
H      -1.438538   -2.702948    0.128448
H      -0.138120   -3.878259   -0.047492
H       0.110374   -2.676583    2.121447
H       1.449972   -2.288778    1.049106
H      -0.923668   -0.530684    1.834575
H       2.114113   -0.039472    1.762400
