21

C      -0.254377    1.278615    0.147330
O       0.233206   -0.043029   -0.016270
C       0.838804   -0.546143    1.109219
C       2.235640   -0.227408    1.642205
C       2.058457   -1.521753    2.487819
C       0.945683   -1.996999    1.464564
C       0.012477   -1.119503    2.283755
C       0.928948   -1.176505    3.506864
C       0.604117   -2.303542    4.479733
H       0.557739    1.986188    0.365171
H      -0.728106    1.562968   -0.794769
H      -0.993973    1.335679    0.957874
H       2.986970   -0.352586    0.857170
H       2.412289    0.708485    2.185584
H       2.926132   -2.101552    2.797508
H       0.784310   -2.894666    0.886709
H      -1.070306   -1.103458    2.242712
H       1.074941   -0.235963    4.055666
H       0.469550   -3.252831    3.949606
H       1.409684   -2.434532    5.211036
H      -0.318156   -2.096935    5.033733
