21

C      -0.099528    1.555919    0.140011
C       0.034250    0.050550    0.124659
C       1.316064   -0.627699   -0.236224
O       2.477679    0.119416   -0.446196
C       0.827553   -0.707016    1.211967
C       1.579200    0.065085    2.278752
C       0.227752   -2.040671    1.560520
C       0.402767   -2.565748    2.973731
O      -0.379417   -2.687974    0.728666
H       0.859284    2.052905    0.302204
H      -0.497426    1.907101   -0.818919
H      -0.791792    1.888946    0.920176
H      -0.852851   -0.494246   -0.185513
H       1.251334   -1.559143   -0.795832
H       2.397731    0.559363   -1.299176
H       2.125077    0.900250    1.840337
H       0.904557    0.459840    3.046178
H       2.318627   -0.568376    2.778269
H       0.042958   -1.841718    3.712287
H      -0.144156   -3.503489    3.075025
H       1.462947   -2.737847    3.191057
