13

O       0.092305    1.342089    0.140685
C       0.073567    0.003820    0.033326
N       0.075339   -0.715045   -1.054924
N       0.051222   -2.073412   -0.697963
C       0.036274   -2.062206    0.606682
N       0.010940   -2.935048    1.667172
C       0.007771   -2.188986    2.842863
C       0.031723   -0.866563    2.542392
N       0.049134   -0.791677    1.145557
H       0.107846    1.685982   -0.762067
H      -0.004446   -3.935328    1.592633
H      -0.010960   -2.667447    3.807513
H       0.037680    0.000897    3.176713
