19

C      -0.046790    1.488798    0.029190
C       0.047865   -0.022450   -0.018637
C       0.683354   -0.607818   -1.304108
O      -0.057999   -1.804386   -1.550113
C      -0.996052   -1.911930   -0.493228
C      -0.387855   -2.663585    0.695577
O       0.818288   -2.038949    1.110370
C       0.700710   -0.628969    1.232255
O      -1.278783   -0.586296   -0.095776
H       0.948549    1.940164   -0.029729
H      -0.645843    1.852219   -0.809829
H      -0.519628    1.820718    0.958152
H       0.562295    0.072302   -2.155428
H       1.744886   -0.841752   -1.173965
H      -1.911643   -2.383719   -0.862295
H      -1.127051   -2.691125    1.512336
H      -0.125668   -3.687154    0.415050
H       1.717325   -0.250372    1.378948
H       0.090923   -0.356917    2.108472
