16

C       0.002147    1.572243   -0.045179
C      -0.089002    0.077972    0.104915
O       1.119164   -0.680905   -0.114295
C       0.576683   -0.644924    1.187844
C       1.329339   -0.174154    2.429813
N       0.286256   -0.075635    3.464796
C       0.924940   -1.407374    3.194811
C       0.226847   -1.944684    1.952095
O      -0.217870   -3.002996    1.625750
H       0.906805    1.960196    0.429766
H       0.021141    1.851301   -1.103517
H      -0.867900    2.049896    0.416648
H      -0.971300   -0.395365   -0.327308
H       2.267995    0.360548    2.473219
H       0.724335    0.273604    4.318210
H       1.440854   -1.951153    3.974886
