18

C      -0.044408    1.562685    0.022851
C      -0.064396    0.033389    0.063595
C      -1.491154   -0.530826    0.031025
O      -2.167989   -0.157959   -1.150833
O       0.624667   -0.529895   -1.073935
C       1.924331   -0.837421   -0.659109
O       1.865492   -1.097872    0.743711
C       0.729261   -0.522514    1.232817
N       0.378496   -0.468820    2.441564
H       0.973865    1.942336   -0.101569
H      -0.660969    1.909990   -0.808571
H      -0.446036    1.958662    0.959135
H      -1.440633   -1.623179    0.143821
H      -2.055114   -0.128194    0.875831
H      -1.652364   -0.509105   -1.886123
H       2.272625   -1.736502   -1.175117
H       2.622586   -0.003398   -0.831300
H       1.072837   -0.903436    3.050591
