16

O       0.075945    0.263047    0.657163
C      -0.031619    1.326664    0.126858
C      -1.322758    2.102871   -0.166722
C      -0.864721    3.422436   -0.776111
C      -0.655620    4.630865    0.156433
N       0.067504    4.107199    1.331473
C       0.830016    4.470862    0.117477
C       0.695527    3.283499   -0.847909
O       1.057551    2.008236   -0.355057
H      -1.930934    1.503708   -0.850005
H      -1.874678    2.213328    0.768086
H      -1.334307    3.676477   -1.725656
H      -1.254955    5.530323    0.215322
H       0.181362    4.865586    2.001387
H       1.622354    5.207256    0.155586
H       1.158027    3.443533   -1.822759
