14

C       0.152501    1.457160    0.207547
C      -0.085101   -0.014496   -0.029736
C       0.595721   -0.757932   -1.173075
C       1.493318   -0.041107   -2.049361
N       2.167752    0.541055   -2.785711
N       0.945585   -0.998299    0.209821
C       2.195640   -0.831734    0.792340
O       3.237434   -1.143020    0.278404
H       1.149944    1.763062   -0.118293
H      -0.584656    2.047202   -0.345064
H       0.042827    1.695100    1.269983
H      -1.087039   -0.366024    0.212744
H       0.060181   -1.567038   -1.663146
H       2.106541   -0.450955    1.827115
