17

C       0.389646    1.439444    0.040776
C      -0.130718    0.021011   -0.001559
O      -0.604121   -0.530066    0.966271
C      -0.048617   -0.744052   -1.340741
C       0.826846   -1.989619   -1.134928
C      -1.473477   -1.127300   -1.768646
O       0.544554    0.137952   -2.293671
H       1.442974    1.463072   -0.255275
H      -0.140060    2.056814   -0.691326
H       0.263630    1.841910    1.046246
H       0.428884   -2.603332   -0.323877
H       0.850770   -2.591228   -2.050845
H       1.852383   -1.700139   -0.887736
H      -2.067607   -0.230645   -1.967762
H      -1.444823   -1.730778   -2.683197
H      -1.962779   -1.706686   -0.982698
H       0.600001   -0.330471   -3.132735
