20

C      -0.059037    1.604021   -0.027962
C       0.037489    0.076844   -0.057874
C      -1.305016   -0.611932    0.133980
C      -1.257501   -2.153306    0.117517
N      -2.193547   -2.474762    1.170501
C      -2.450533   -3.825521    1.610441
C      -2.406971   -1.397358    1.998927
O      -2.988044   -1.381485    3.050892
O      -1.844991   -0.288855    1.430592
H       0.926677    2.060100   -0.155851
H      -0.706365    1.975476   -0.829899
H      -0.473748    1.945528    0.923889
H       0.453279   -0.259715   -1.016741
H       0.720053   -0.276345    0.724625
H      -2.023146   -0.250412   -0.614326
H      -1.566673   -2.565432   -0.849023
H      -0.247055   -2.533649    0.340491
H      -1.521895   -4.347150    1.882894
H      -3.096433   -3.771392    2.488015
H      -2.952626   -4.401654    0.825545
