17

O       0.013825   -0.046701   -0.169200
C      -0.023592    1.157283    0.008093
N      -1.202015    1.843830    0.196874
C      -1.336029    3.289764    0.114288
C      -0.079024    3.942436    0.681597
C       1.169013    3.370370   -0.016248
N       1.134500    1.915710    0.116293
C       1.270011    3.814974   -1.414685
C       1.358435    4.169092   -2.560181
H      -2.011416    1.272408    0.012981
H      -1.488331    3.626267   -0.922040
H      -2.213323    3.598088    0.692145
H      -0.116504    5.025117    0.543443
H       0.001030    3.727632    1.751477
H       2.057330    3.729577    0.517712
H       1.944529    1.404852   -0.201312
H       1.441326    4.475594   -3.573913
