17

N       0.236519    0.760085   -0.914444
C      -0.038261    0.058197    0.219287
O       0.676319    0.028662    1.204805
C      -1.303021   -0.733828    0.157557
C      -2.043621   -1.371255    1.328041
C      -2.866819   -2.128987    0.251513
C      -3.586275   -0.978464   -0.479441
N      -2.260579   -0.494975   -0.992531
C      -1.692844   -1.844327   -0.760878
H       1.028796    1.381040   -0.906075
H      -0.497416    0.883296   -1.594574
H      -1.367258   -2.027580    1.877587
H      -2.587705   -0.725517    2.024680
H      -3.347307   -3.080472    0.467414
H      -4.183915   -1.304730   -1.333945
H      -4.149183   -0.253733    0.119721
H      -1.132744   -2.415360   -1.489793
