17

O      -0.012901   -0.118163    0.166349
C      -0.009213    1.093480    0.059906
C      -1.276782    1.903939   -0.130316
C      -1.436967    3.080215    0.850143
C      -0.727513    4.354967    0.388599
C       0.740118    4.225779    0.097992
C       1.507483    3.136162   -0.003493
N       1.190808    1.777901    0.103746
H      -1.300574    2.278755   -1.162441
H      -2.092898    1.186891   -0.026307
H      -2.503451    3.299282    0.965070
H      -1.075689    2.784253    1.841952
H      -1.235873    4.740544   -0.508958
H      -0.863880    5.137366    1.147665
H       1.262653    5.164664   -0.063532
H       2.565985    3.273845   -0.202304
H       1.972575    1.143363    0.183885
