19

C      -0.254533    1.582777    0.190990
C       0.035237    0.112613   -0.015124
C      -1.158048   -0.882530   -0.018145
C      -0.427399   -1.776411    1.031475
O      -0.045626   -3.073761    0.637447
C       0.773690   -0.792532    1.066032
C       1.842604   -1.094470    0.011137
O       2.896761   -1.657234    0.046918
C       1.127111   -0.259637   -1.066339
H       0.667555    2.154424    0.345086
H      -0.765307    2.007126   -0.681838
H      -0.898786    1.745405    1.061995
H      -2.090777   -0.452239    0.357406
H      -1.356774   -1.374825   -0.974412
H      -0.954682   -1.793696    1.994456
H      -0.833082   -3.626877    0.607497
H       1.122104   -0.463745    2.046320
H       0.797571   -0.806081   -1.954780
H       1.741799    0.587885   -1.390300
