19

C      -0.194589    1.531513    0.029162
C       0.038260    0.034511    0.044839
C       1.342236   -0.636659   -0.238518
C       2.631777    0.156240   -0.104221
O       2.555208    0.858231    1.130849
C       1.729943    0.125842    2.037004
C       0.767392   -0.681871    1.184781
C       0.189696   -1.924496    1.726957
O       0.369435   -2.334178    2.849411
H       0.672920    2.082623    0.393971
H      -0.410052    1.866123   -0.991400
H      -1.057462    1.792543    0.650370
H      -0.816084   -0.537434   -0.315416
H       1.358005   -1.531839   -0.851059
H       3.489498   -0.534524   -0.121087
H       2.777429    0.901311   -0.893988
H       2.316925   -0.560337    2.662738
H       1.243124    0.854612    2.692463
H      -0.452648   -2.482962    1.005893
