20

C       0.183678    1.490253    0.172644
C      -0.149867    0.006641    0.011886
O      -1.555328   -0.227069    0.003409
C       0.500589   -0.567263   -1.232635
N       1.879451   -1.053532   -1.116512
C       0.793510   -2.026682   -1.419376
C       0.502748   -3.062842   -0.349148
C       0.714420   -2.517712   -2.774416
C       0.665314   -2.943356   -3.898889
H       1.265338    1.635394    0.252641
H      -0.171689    2.065194   -0.692178
H      -0.294682    1.891459    1.069946
H       0.221658   -0.534837    0.885699
H      -1.933317    0.266883   -0.732728
H       0.238800   -0.033095   -2.147627
H       2.404455   -0.847666   -1.962687
H       0.691414   -2.655535    0.644811
H      -0.539125   -3.389698   -0.405782
H       1.147921   -3.935248   -0.487424
H       0.615015   -3.316727   -4.891655
