13

N      -0.154772   -1.213330   -0.120089
C       0.023708   -0.078795    0.015405
C       0.098911    1.360367    0.085929
C       0.489683    2.213809    1.275228
C       1.721210    1.653003    2.053684
O       2.147029    0.433410    1.443218
C       2.532869    1.670103    0.840633
C       1.336147    2.231578    0.010116
H      -0.725717    1.815167   -0.459419
H      -0.172291    2.978165    1.659438
H       1.958770    1.813258    3.097298
H       3.585982    1.847537    0.665373
H       1.428699    3.011772   -0.733389
