19

C       0.010431    1.348285    0.138820
O      -0.018348   -0.058189    0.159561
C      -1.294032   -0.585266   -0.150444
C      -1.194177   -2.096393   -0.092649
C      -1.151522   -2.724708    1.342614
O      -2.599938   -2.495686    1.423132
C      -2.549368   -2.875487    0.007423
C      -2.054443   -4.331169    0.092508
C      -1.093803   -4.226446    1.013123
H       1.026474    1.659875    0.393709
H      -0.244357    1.748262   -0.855928
H      -0.689474    1.783022    0.870015
H      -2.051025   -0.226513    0.561704
H      -1.603986   -0.265983   -1.161611
H      -0.459722   -2.471116   -0.809101
H      -0.575057   -2.308283    2.166355
H      -3.443560   -2.626467   -0.563602
H      -2.414602   -5.178948   -0.470740
H      -0.425540   -4.963690    1.432249
