23

C       0.110365    1.354825    0.104836
O      -0.147927   -0.012452   -0.109605
C       0.568315   -0.571472   -1.196814
C       2.079901   -0.777702   -0.928534
C       2.472729   -2.007441   -1.775806
C       1.196004   -2.833375   -1.868443
C       0.425095   -3.058137   -0.589884
C       0.014005   -1.948676   -1.530448
C      -1.315480   -2.009527   -2.241802
H       1.151915    1.543656    0.405556
H      -0.099449    1.955125   -0.795398
H      -0.549255    1.688260    0.910187
H       0.434889    0.078958   -2.080439
H       2.679301    0.103305   -1.170919
H       2.214893   -0.975016    0.139950
H       2.778410   -1.696557   -2.782087
H       3.315095   -2.558047   -1.342205
H       1.116850   -3.580250   -2.651894
H      -0.228201   -3.923594   -0.554534
H       0.880957   -2.815067    0.363857
H      -2.103870   -1.566553   -1.623614
H      -1.286666   -1.458887   -3.190189
H      -1.602461   -3.042162   -2.463452
