16

C       0.165877    1.185213   -0.619718
N      -0.144418    0.299308    0.496683
C      -1.396538   -0.386592    0.380567
C      -1.566566   -1.619347   -0.556215
N      -0.595683   -2.597748   -0.057344
C      -1.956892   -2.509881    0.588728
C      -1.835417   -1.346434    1.547391
O      -2.112136   -1.172183    2.695463
H       1.140648    1.651733   -0.451336
H       0.190511    0.689656   -1.605731
H      -0.581970    1.984880   -0.667314
H       0.593055   -0.387024    0.620038
H      -2.205908    0.338522    0.225228
H      -1.949220   -1.653454   -1.568245
H      -0.624548   -3.419972   -0.659901
H      -2.606292   -3.374755    0.623347
