19

C      -0.007460    1.497294    0.164414
C       1.268135    0.742289   -0.051001
O       1.714977    0.152013    1.170862
C       0.518164   -0.687011    1.211610
C       0.863374   -2.169617    1.008469
C       0.098555   -2.838044   -0.105504
C      -0.642524   -2.215449   -1.020312
C      -0.854577   -0.725738   -1.077539
C      -0.048280   -0.002858   -0.036157
H      -0.207097    1.940435    1.137070
H      -0.362207    2.072424   -0.686908
H       2.003824    0.941870   -0.822697
H      -0.034646   -0.528058    2.145188
H       1.940543   -2.234060    0.808234
H       0.703215   -2.723616    1.941551
H       0.185346   -3.921569   -0.147236
H      -1.151792   -2.800847   -1.781969
H      -0.607838   -0.348901   -2.080156
H      -1.926722   -0.510876   -0.948769
