16

N       0.281003   -1.146879    0.407864
C       0.139213   -0.017397    0.211259
C      -0.056576    1.416933   -0.051773
C      -0.942907    2.048451    1.003169
C      -0.711610    3.238872    1.546574
C       0.459182    4.120568    1.218218
C       1.521997    3.433220    0.394039
O       2.087141    2.242322    0.952998
C       1.288906    2.116964   -0.215981
H      -0.568140    1.479903   -1.025165
H      -1.814166    1.469843    1.292263
H      -1.413905    3.624848    2.280594
H       0.113761    5.011542    0.673998
H       0.913228    4.500386    2.143315
H       2.254104    4.090453   -0.075366
H       1.837833    1.835769   -1.114252
