19

C      -0.016459    1.537043   -0.035512
C       1.493184    1.866212   -0.009117
C       2.054206    1.555886    1.399540
C       1.470360    0.286267    1.983573
C       0.536014   -0.437349    1.362995
C       0.025739   -0.008934   -0.002468
C       1.144683   -0.309736   -1.009252
O       1.212034    0.576244   -2.133327
C       2.049939    0.841443   -0.994952
H      -0.554726    1.950740    0.820152
H      -0.473627    1.896314   -0.957669
H       1.714437    2.898995   -0.293636
H       3.150359    1.476814    1.366057
H       1.845773    2.396115    2.076741
H       1.838494   -0.014926    2.961539
H       0.145005   -1.344889    1.813483
H      -0.928729   -0.479174   -0.250796
H       1.476226   -1.329145   -1.185983
H       3.119581    0.761386   -1.172128
