17

O       0.109180    1.380028   -0.085501
C       0.029479    0.002166   -0.040199
C      -0.320311   -0.840311   -1.233879
C      -1.219794   -0.884454   -0.022535
C      -0.581317   -1.798707    1.029839
C       0.637883   -0.827227    1.079807
O       1.922614   -1.395666    0.817471
C       2.906037   -1.216454    1.718720
O       4.008818   -1.649686    1.570091
H       0.778040    1.627822   -0.733041
H      -0.709138   -0.259472   -2.064296
H       0.277281   -1.703172   -1.516412
H      -2.258254   -0.584864   -0.060491
H      -1.117538   -1.855208    1.978942
H      -0.340211   -2.809360    0.689209
H       0.667247   -0.255723    2.013729
H       2.578524   -0.628217    2.598770
