23

C      -0.131643    1.635863   -0.150502
C      -0.014439    0.116652    0.002028
C       0.776164   -0.530862   -1.140089
C       0.774831   -2.076246   -1.143975
C       1.376300   -2.665015    0.132946
O      -0.563351   -2.570828   -1.195417
C       1.567513   -2.557422   -2.395065
C       1.577192   -4.001295   -2.587306
C       1.592658   -5.191775   -2.752175
H       0.854908    2.112887   -0.168621
H      -0.643081    1.904379   -1.081916
H      -0.697270    2.075325    0.676998
H       0.464035   -0.112862    0.961100
H      -1.010841   -0.336638    0.038723
H       0.354850   -0.191908   -2.098887
H       1.814186   -0.172203   -1.125521
H       0.756954   -2.413478    0.996216
H       1.426244   -3.753169    0.053578
H       2.385818   -2.277842    0.301232
H      -0.955185   -2.294316   -2.031167
H       1.136153   -2.076083   -3.284433
H       2.598325   -2.187160   -2.325744
H       1.601205   -6.243731   -2.895485
