16

C      -0.222342   -1.269747   -0.314527
C      -0.105372   -0.085719   -0.139671
C       0.018171    1.345245    0.050379
C      -0.244995    1.987345    1.454018
O       0.085734    1.111598    2.507565
C       1.471081    0.772845    2.337019
C       2.017036    1.807222    1.364933
C       1.001441    2.851177    1.163682
N       1.404884    1.962371    0.009172
H      -0.324497   -2.316178   -0.464249
H      -0.562198    1.872008   -0.714636
H      -1.220190    2.431207    1.646890
H       1.974982    0.843912    3.307881
H       1.566021   -0.251435    1.961916
H       3.075507    2.039726    1.369080
H       1.128421    3.925723    1.169632
