16

C      -0.067553    1.433568   -0.146321
C      -0.028699   -0.018290   -0.057166
C      -0.007415   -1.218153    0.016686
C       0.050812   -2.679673    0.084885
C      -1.297664   -3.269366    0.135929
N      -2.343084   -3.755817    0.196615
C       0.880811   -3.259109   -1.071288
C       0.621743   -4.573706   -1.666154
O       0.253202   -3.358007   -2.333166
H       0.943374    1.853948   -0.172096
H      -0.588692    1.757343   -1.053221
H      -0.588644    1.866926    0.713812
H       0.558699   -2.974338    1.015956
H       1.893639   -2.856195   -1.086784
H       1.444942   -5.123159   -2.118906
H      -0.212290   -5.173737   -1.309728
