25

C       1.135664    1.133801   -0.070709
C       0.834699   -0.087775    0.810020
C       1.203399    0.179522    2.271488
O       2.592497    0.471581    2.341797
C      -0.624346   -0.494692    0.701615
C      -1.131300   -1.310271   -0.467218
C      -1.156184   -1.898947    0.925981
C      -0.216620   -3.048612    1.241286
C      -2.506693   -2.019749    1.609470
H       2.180211    1.435200    0.033268
H       0.934678    0.914663   -1.123664
H       0.507047    1.985171    0.218108
H       1.470292   -0.914290    0.469609
H       0.600585    1.022297    2.650931
H       0.953995   -0.702670    2.880855
H       2.809357    0.688452    3.252753
H      -1.302053    0.292165    1.032697
H      -2.069526   -1.029192   -0.934979
H      -0.390400   -1.696091   -1.161685
H       0.741740   -2.961856    0.723453
H      -0.011691   -3.113670    2.316749
H      -0.666841   -4.001380    0.937617
H      -3.015974   -2.945538    1.315220
H      -2.399317   -2.035373    2.701015
H      -3.162895   -1.182719    1.351163
