19

C      -0.069970    1.503916   -0.001110
C      -0.050487    0.047725    0.036613
C      -0.004530   -1.157024    0.065825
C       0.005037   -2.615620    0.103237
C       0.659238   -3.237585    1.327784
C      -0.033449   -4.280733    1.774553
C      -1.276122   -4.534056    0.956231
C      -1.438970   -3.239327    0.132505
O      -2.358223   -2.417844    0.821012
H       0.934315    1.905913   -0.174377
H      -0.716471    1.874021   -0.804365
H      -0.436892    1.923695    0.941792
H       0.519303   -2.978018   -0.800615
H       1.591781   -2.862044    1.730955
H       0.255068   -4.907341    2.611155
H      -1.150678   -5.410384    0.305785
H      -2.172732   -4.705000    1.560147
H      -1.788801   -3.436056   -0.891014
H      -2.178891   -1.504388    0.562372
