18

C      -0.175234    1.493406   -0.731092
C      -0.083879    0.191935    0.035004
C       1.043959   -0.750355   -0.267790
N       1.020247   -0.024843    0.998363
C      -1.411023   -0.393313    0.445360
O      -2.445968    0.045233   -0.010175
C      -1.431363   -1.543301    1.445943
C      -2.473436   -1.301588    2.532717
O      -2.329338   -1.635013    3.677992
H       0.817073    1.819630   -1.057130
H      -0.813064    1.378811   -1.610477
H      -0.615545    2.279979   -0.110654
H       0.905092   -1.824976   -0.186763
H       1.731625   -0.439816   -1.049983
H       1.650936    0.772487    0.968593
H      -1.765749   -2.435172    0.896642
H      -0.462722   -1.743678    1.901914
H      -3.392493   -0.795705    2.172251
