18

C       0.143053    1.686786    0.104096
C       0.103072    0.175165    0.040392
C       1.382659   -0.637601    0.149760
O       2.593792    0.000350    0.427359
C       0.368053   -0.649439    1.274066
O       0.644853    0.060976    2.441286
C       1.599050   -0.589347    3.260827
C       1.791222    0.201626    4.479378
N       1.964992    0.802069    5.450017
H       0.912541    2.031781    0.795594
H       0.344176    2.111259   -0.885794
H      -0.816495    2.084980    0.447175
H      -0.646000   -0.235019   -0.631810
H       1.470347   -1.537921   -0.458400
H       2.822681    0.567874   -0.315986
H      -0.207287   -1.562320    1.434258
H       1.258415   -1.596224    3.548814
H       2.559543   -0.688843    2.740434
