13

O       0.077280    1.306257    0.206993
C       0.067531   -0.030998   -0.002947
C       0.085801   -0.783030   -1.168113
C       0.060178   -2.119974   -0.688288
C       0.028808   -2.134153    0.678643
N       0.033159   -0.827848    1.120425
N       0.003490   -3.413051    1.170204
C       0.020335   -4.124583    0.079063
O       0.055294   -3.419578   -1.102243
H       0.103959    1.750930   -0.645728
H       0.112908   -0.402425   -2.175496
H       0.015250   -0.482531    2.063951
H       0.010482   -5.197945   -0.011661
