20

C       0.065982    1.553012   -0.026086
C      -0.051323    0.055341   -0.025526
C       0.065070   -0.681163   -1.134493
C      -0.026609   -2.161585   -1.107866
N       0.866425   -2.887445   -0.152439
C      -0.584256   -2.821414    0.098938
C      -0.999955   -1.959893    1.270325
O      -0.862474   -2.663137    2.500592
C      -0.246748   -0.614506    1.317671
H       0.888073    1.885100    0.621496
H       0.245883    1.946335   -1.030259
H      -0.845525    2.020209    0.368918
H       0.239186   -0.205536   -2.095784
H      -0.200018   -2.647456   -2.064237
H       1.105343   -3.796191   -0.542455
H      -1.169459   -3.729463   -0.028562
H      -2.074944   -1.764172    1.176588
H       0.059804   -2.941994    2.550201
H       0.741712   -0.800381    1.759153
H      -0.768355    0.053145    2.012003
