9

F       0.008538    0.065351   -0.056006
C      -0.020690    1.397677    0.012162
F       1.233839    1.846900   -0.058317
F      -0.689824    1.856507   -1.051638
C      -0.711901    1.874735    1.290099
C      -0.034366    1.410439    2.495209
N       0.493900    1.047395    3.454814
H      -0.738927    2.968034    1.273019
H      -1.742525    1.508801    1.274902
