17

C       0.019112    1.464786    0.007804
N       0.029520    0.016463    0.004865
C       0.006804   -0.832381   -1.073802
C      -0.073059   -0.368380   -2.487650
N       0.067398   -2.093877   -0.683827
C       0.141754   -2.065556    0.677766
O       0.209993   -3.188665    1.447743
C       0.122697   -0.778806    1.132082
O       0.169099   -0.198803    2.362928
H       1.028675    1.878533   -0.097445
H      -0.598956    1.832215   -0.813858
H      -0.401402    1.814465    0.952031
H       0.782379    0.256337   -2.773371
H      -0.083662   -1.248023   -3.132884
H      -0.982107    0.212664   -2.688542
H       0.175242   -3.933870    0.837307
H       0.078136   -0.901338    3.015403
