19

C       0.008366    1.532064    0.014937
C       0.016642    0.000079   -0.055487
N       0.700749   -0.523270   -1.222494
C       0.041966   -0.649054   -2.518077
C       1.098079   -1.297509   -3.432037
C       2.402492   -1.165392   -2.656391
O       3.518451   -1.394737   -3.042480
C       2.057536   -0.685539   -1.260015
N       2.864318   -0.473557   -0.292335
H       1.032548    1.910789    0.056198
H      -0.494799    1.973533   -0.851510
H      -0.518524    1.864755    0.914642
H       0.530542   -0.403652    0.821727
H      -1.007633   -0.391387   -0.059828
H      -0.863283   -1.259745   -2.422796
H      -0.268092    0.331355   -2.907076
H       0.899595   -2.363111   -3.588706
H       1.176785   -0.832859   -4.416892
H       3.805833   -0.716221   -0.606840
