18

C       0.106653    1.489607    0.003066
C      -0.062149    0.007002    0.019789
C      -1.213881   -0.677333    0.157556
C      -1.175584   -2.112798    0.149617
C      -0.010900   -2.787806    0.007827
C       0.098975   -4.282605   -0.008112
C       1.228027   -2.032054   -0.139547
N       2.368290   -2.579605   -0.277144
O       1.123162   -0.641429   -0.125325
H       0.772409    1.812064    0.811391
H       0.561272    1.816701   -0.938666
H      -0.857518    1.987173    0.120794
H      -2.147211   -0.142582    0.271728
H      -2.104869   -2.663694    0.260263
H       0.554579   -4.628438   -0.941868
H       0.756590   -4.632147    0.794755
H      -0.883289   -4.748481    0.105426
H       3.098593   -1.872642   -0.363645
