17

C       0.009461    1.546167    0.059476
C       0.005484    0.046422    0.035606
C      -1.215980   -0.861852   -0.013084
N      -0.428397   -1.980770    0.678471
C       0.636377   -0.967311    0.978764
C       1.243475   -0.790579   -0.364193
N       1.086753   -2.046176   -1.040815
C       0.072686   -2.777159   -0.446931
O      -0.386372   -3.821794   -0.821870
H       1.003929    1.938224    0.297080
H      -0.284322    1.957950   -0.912937
H      -0.687814    1.933270    0.810994
H      -2.013600   -0.527318    0.654687
H      -1.644533   -1.132878   -0.984533
H       1.106657   -0.904778    1.952438
H       2.185112   -0.269455   -0.483933
H       1.323183   -2.209757   -2.005738
