17

C      -0.023467    1.515337    0.010389
C       0.016513    0.006233    0.001489
C       0.044166   -0.684008   -1.215789
C       0.083443   -2.067812   -1.190588
F       0.106417   -2.735786   -2.352265
C       0.096142   -2.800152   -0.014165
C       0.069907   -2.113766    1.204858
N       0.142950   -2.810283    2.410248
C       0.027872   -0.710632    1.194802
H       0.874084    1.936969   -0.455990
H      -0.883791    1.892940   -0.553024
H      -0.088046    1.908595    1.028068
H       0.033958   -0.164657   -2.166692
H       0.130221   -3.882836   -0.056655
H      -0.185371   -3.764044    2.373656
H      -0.231478   -2.318245    3.208047
H       0.009205   -0.176931    2.140742
