19

C      -0.157339    1.536487    0.002471
C       0.013728    0.022555    0.017924
C       1.127667   -0.598156   -0.889475
C       2.128071   -0.276001    0.258174
C       0.895217   -0.603612    1.149485
C       0.711866   -2.110561    0.881595
C       0.889629   -2.106388   -0.677694
H       0.786157    2.078456    0.111930
H      -0.615907    1.863055   -0.937744
H      -0.816653    1.858255    0.816536
H      -0.973038   -0.444484   -0.095826
H       1.291047   -0.254212   -1.912527
H       3.012143   -0.914175    0.357258
H       2.429952    0.770538    0.295384
H       0.823927   -0.265178    2.184861
H       1.465819   -2.719227    1.389466
H      -0.273587   -2.471231    1.191044
H      -0.000671   -2.464821   -1.202908
H       1.738912   -2.712818   -1.006043
