19

C      -0.035081    1.547382    0.011208
C       1.463080    1.880856    0.047589
C       2.125507    1.467468    1.373870
C       1.720007    0.049554    1.648189
O       0.471874   -0.474797    1.267932
C       0.016042    0.006370   -0.004380
C       1.073927   -0.298143   -1.084067
C       2.189645    0.671763   -0.669979
C       2.835000    0.286778    0.673163
H      -0.586407    1.928990    0.875180
H      -0.513378    1.918235   -0.902056
H       1.737032    2.872189   -0.312270
H       2.482402    2.139696    2.145711
H       2.001066   -0.354927    2.614324
H      -0.949301   -0.476180   -0.168732
H       1.382360   -1.347276   -1.069205
H       0.677191   -0.063016   -2.077882
H       2.893698    0.947357   -1.454610
H       3.834320   -0.110075    0.810528
