14

O       0.019486   -0.061831    0.003751
C      -0.034413    1.149048    0.007737
C       1.188726    1.972194    0.001499
N       2.167367    2.586385   -0.003629
N      -1.192284    1.866878    0.018130
C      -2.517243    1.227268    0.025513
C      -3.451294    2.470748    0.035356
N      -2.581974    3.660688    0.032717
C      -1.379700    3.259677    0.023307
H      -2.631047    0.596255   -0.859220
H      -2.618878    0.591455    0.908293
H      -4.106215    2.503328   -0.840242
H      -4.094188    2.498422    0.919986
H      -0.510182    3.906898    0.019131
