19

C      -0.314569    1.316372   -0.050601
O       0.160520   -0.014675    0.095901
C       0.774917   -0.495502   -1.037742
C       0.003244   -1.004001   -2.220605
C       0.895456   -1.961866   -1.457427
C       2.345554   -1.748798   -1.859486
O       2.586123   -1.904730   -3.250816
C       2.247029   -0.245478   -1.394667
O       2.586013    0.717581   -2.357755
H       0.501459    2.012661   -0.284354
H      -1.069705    1.384490   -0.845820
H      -0.767041    1.598422    0.902554
H      -1.054586   -1.142784   -2.022221
H       0.238906   -0.717784   -3.240357
H       0.499622   -2.845196   -0.973449
H       3.053159   -2.339544   -1.268659
H       3.538357   -1.877515   -3.391693
H       2.833185   -0.049098   -0.491598
H       2.464317    0.284435   -3.213699
