18

C      -0.003724    1.410958   -0.007394
O       0.006156    0.002902   -0.003716
C       0.646854   -0.546047   -1.130298
C       0.596468   -2.064189   -1.011339
C       1.271236   -2.751185   -2.196434
C       1.237539   -4.258766   -2.110781
O       0.741291   -4.899482   -1.220320
C       1.886428   -4.951630   -3.249699
N       2.395952   -5.477988   -4.144304
H       1.016377    1.826808   -0.006279
H      -0.536774    1.813719   -0.883292
H      -0.518658    1.736020    0.899535
H       0.148949   -0.214184   -2.059257
H       1.693699   -0.197271   -1.189017
H       1.080160   -2.368792   -0.078305
H      -0.446896   -2.385611   -0.938135
H       0.807808   -2.468633   -3.153218
H       2.325469   -2.453942   -2.297699
