16

C      -0.044835    1.476544    0.023657
N      -0.053001    0.036000    0.162421
C      -1.359491   -0.623215    0.099596
C      -1.161072   -1.861281    0.927479
C      -0.015460   -1.807586    1.595629
C       0.695500   -0.502355    1.297271
C       2.126566   -0.671508    0.972165
N       3.251577   -0.792776    0.738537
H       0.986563    1.838966   -0.023662
H      -0.537717    1.757948   -0.911643
H      -0.558321    1.999994    0.852280
H      -2.170318    0.000090    0.524465
H      -1.641730   -0.839830   -0.940102
H      -1.888341   -2.661932    0.972151
H       0.388639   -2.539375    2.281558
H       0.657451    0.157207    2.188118
