17

C      -0.058157    1.479602   -0.044315
C       0.028779   -0.021322    0.001370
N      -0.076647   -0.683821   -1.155010
C       0.000734   -2.015406   -1.112666
C      -0.122921   -2.724344   -2.438901
O      -0.022904   -4.121212   -2.240544
C       0.184906   -2.697314    0.091650
N       0.291506   -2.047246    1.252223
C       0.213075   -0.718884    1.199785
H       0.039730    1.917154    0.952167
H       0.729335    1.889526   -0.684703
H      -1.015278    1.795004   -0.471782
H      -1.085219   -2.440878   -2.893535
H       0.666177   -2.345882   -3.107597
H      -0.103830   -4.553698   -3.094548
H       0.245854   -3.778801    0.110555
H       0.299207   -0.182981    2.142234
