16

C      -0.007884    1.365039    0.028898
O       0.033581   -0.059042    0.051431
C       0.651573   -0.637394    1.083117
N       1.179124    0.106518    2.004489
N       1.797368   -0.529413    3.033244
C       1.884674   -1.876271    3.142302
C       1.344980   -2.685118    2.198328
C       0.661100   -2.122320    1.050994
N       0.096594   -2.735262    0.069302
H       1.001884    1.786926    0.007456
H      -0.548743    1.626565   -0.881001
H      -0.528526    1.756629    0.908478
H       2.185717    0.088950    3.723248
H       2.406953   -2.239908    4.019956
H       1.422449   -3.761111    2.296622
H       0.191844   -3.745718    0.198991
