13

C      -0.014156    1.464717   -0.056110
N      -0.007237    0.024697    0.068942
N      -0.045258   -0.776584   -1.078731
N      -0.030456   -2.022839   -0.744922
C       0.016676   -2.081266    0.616676
C       0.031593   -0.795991    1.130839
N       0.078116   -0.953996    2.464894
N       0.091020   -2.322774    2.746552
N       0.053896   -2.983847    1.639907
H       0.895027    1.899004    0.370622
H      -0.054567    1.689333   -1.122309
H      -0.890203    1.895996    0.437670
H       0.103216   -0.301473    3.229235
