21

O      -0.123674    1.402127   -0.159455
C       0.011040   -0.004260    0.027517
C       0.703488   -0.696555   -1.169000
C      -0.002922   -2.054597   -1.294894
C      -1.478832   -1.692595   -1.048002
C      -1.426996   -0.630584    0.081754
C      -1.526301   -1.201254    1.471773
C      -0.409828   -1.048508    2.180503
C       0.667266   -0.335846    1.406614
H       0.761206    1.776255   -0.229113
H       0.505164   -0.093756   -2.063140
H       1.789296   -0.773900   -1.050011
H       0.167450   -2.539466   -2.260317
H       0.351976   -2.741772   -0.517358
H      -1.905565   -1.250809   -1.955769
H      -2.096648   -2.556508   -0.785619
H      -2.174844    0.152299   -0.081140
H      -2.429062   -1.688204    1.827033
H      -0.265609   -1.385563    3.201766
H       1.568470   -0.954589    1.301326
H       0.979941    0.593508    1.900190
