19

C       0.034645    1.403711   -0.284595
C      -0.018769   -0.030744    0.256052
C      -1.400026   -0.637590    0.150681
C      -1.942170   -1.292200   -1.115162
N      -1.026618   -1.798650   -2.095347
C      -0.138994   -2.720875   -1.547260
O       0.867688   -3.154807   -2.059508
N      -0.642446   -3.040361   -0.288418
C      -1.678237   -2.134357    0.114180
H       1.037446    1.828373   -0.178755
H      -0.232938    1.435089   -1.346054
H      -0.663385    2.056367    0.250916
H       0.710499   -0.647742   -0.277677
H       0.292567   -0.038309    1.308573
H      -2.171330   -0.089829    0.689778
H      -2.946890   -1.074637   -1.459653
H      -0.700220   -1.249262   -2.873247
H      -0.004850   -3.461485    0.367350
H      -2.482310   -2.554682    0.707844
