14

O      -0.005973    0.001139   -0.000372
C      -0.030556    1.202197   -0.000574
C      -1.193741    2.125617    0.017875
C      -1.207211    3.403458    0.899095
C       0.189446    3.728104    1.414413
N       0.731520    3.494785    0.004458
C      -0.676592    3.459662   -0.490515
C       1.220841    2.136145   -0.029530
O       2.363390    1.799567    0.046021
H      -2.168697    1.758807   -0.276478
H      -2.154654    3.758818    1.284827
H       0.310642    4.780239    1.680789
H       0.632115    3.097216    2.191195
H      -0.981792    3.964852   -1.396625
