15

N      -0.817859   -0.734164   -0.941003
C      -0.408402    0.236360   -0.464007
C       0.116267    1.443945    0.146822
C       0.019380    1.574224    1.706610
C       1.452784    2.110019    1.678900
C       1.993556    3.315635    2.308094
O       2.377118    1.996389    2.732786
C       1.673900    1.588611    0.257024
H      -0.323025    2.314572   -0.345935
H      -0.770446    2.216387    2.099390
H      -0.032007    0.595391    2.189454
H       2.773055    3.887007    1.805976
H       1.387752    3.874959    3.019688
H       2.168917    0.614529    0.261147
H       2.160734    2.241875   -0.468727
