23

C      -0.072668    1.343185   -0.040265
O       0.033180   -0.058170    0.051343
C       0.723652   -0.582734    1.188579
C       2.150409   -0.036060    1.259975
C      -0.106316   -0.430604    2.518277
C      -0.464458   -1.910229    2.765088
C       0.900634   -2.610513    2.514357
C       0.652920   -2.121517    1.057059
C      -0.853197   -2.397297    1.339054
H       0.891993    1.829613   -0.242144
H      -0.743907    1.552967   -0.877542
H      -0.500646    1.794623    0.867375
H       2.165936    1.028029    1.515128
H       2.733216   -0.558649    2.022006
H       2.652053   -0.164819    0.295170
H       0.479604    0.000451    3.336322
H      -0.991120    0.192997    2.364984
H      -1.076398   -2.134678    3.639591
H       1.778928   -2.250622    3.057813
H       0.837907   -3.698262    2.594016
H       1.174275   -2.548236    0.199748
H      -1.090410   -3.463411    1.313965
H      -1.586421   -1.823237    0.771512
