21

C      -0.425481    1.530546   -0.021717
C      -0.002912    0.064466   -0.030489
O       0.728024   -0.275810   -1.229983
C       2.028588   -0.705075   -0.815476
C       2.781813    0.512331   -0.213225
C       2.341756    0.292114    1.251596
C       2.898730   -1.141579    1.482691
C       1.791540   -1.534515    0.477770
C       0.927707   -0.395121    1.088641
H       0.432815    2.203449    0.051879
H      -0.971222    1.770832   -0.938629
H      -1.087505    1.726623    0.829074
H      -0.912295   -0.555459   -0.016853
H       2.501949   -1.203532   -1.661417
H       3.870314    0.450696   -0.314681
H       2.443102    1.439858   -0.676921
H       2.513071    1.096626    1.966713
H       3.944947   -1.329126    1.222692
H       2.689773   -1.527357    2.483738
H       1.420212   -2.551545    0.354516
H       0.443049   -0.621053    2.039048
