19

C       0.171068    1.287644   -0.148629
O      -0.198477   -0.033329    0.183434
C       0.580618   -0.605276    1.204069
C       0.140628   -2.078312    1.425736
C       1.442778   -2.818053    1.075473
C       1.742622   -2.648696   -0.430168
O       2.177149   -1.278276   -0.495118
C       2.086909   -0.824339    0.844025
O       2.436884   -1.936806    1.639780
H       1.163756    1.329841   -0.616605
H      -0.568361    1.657492   -0.862969
H       0.167107    1.944807    0.735499
H       0.506071   -0.005849    2.124609
H      -0.140668   -2.266728    2.463413
H      -0.700790   -2.326916    0.776121
H       1.560888   -3.825017    1.471897
H       2.552328   -3.301985   -0.772914
H       0.858831   -2.796984   -1.058888
H       2.776070    0.004089    1.003979
