17

C      -0.036656    1.628761   -0.012543
C      -0.003621    0.089415   -0.007886
C       0.689434   -0.463762    1.151093
C       1.264837   -0.899461    2.113760
C       1.963785   -1.437634    3.283110
C       2.007026   -2.898624    3.315630
C       2.048558   -4.106289    3.352377
C       2.094183   -5.465883    3.392606
C       2.135336   -6.672032    3.429507
H       0.976592    2.039451   -0.021116
H      -0.564895    1.995199   -0.897638
H      -0.547442    2.009462    0.876039
H      -1.029336   -0.299730   -0.036369
H       0.480219   -0.270020   -0.924978
H       2.991802   -1.048542    3.314285
H       1.485008   -1.073310    4.203560
H       2.171250   -7.732541    3.461105
