17

C      -0.060546    1.471321    0.006379
C       0.032220   -0.025201   -0.012884
C       0.910507   -0.890194   -0.919755
C       0.039107   -2.088294   -0.455936
C       0.384414   -2.240264    1.050690
C      -0.287496   -0.880999    1.228608
C      -1.083034   -1.046591   -0.049057
H       0.862249    1.924003    0.388995
H      -0.235506    1.873392   -0.998313
H      -0.883110    1.809549    0.646138
H       0.740336   -0.646694   -1.973392
H       1.989581   -0.943593   -0.725645
H      -0.092497   -2.961950   -1.090992
H      -0.200400   -3.035499    1.522336
H       1.442227   -2.354510    1.317931
H      -0.609490   -0.407801    2.148356
H      -2.139613   -0.962206   -0.260281
