19

C       0.067047    1.487954   -0.081674
N      -0.049403    0.039634    0.060428
C      -1.386250   -0.495737    0.025007
C      -2.229994    0.000155    1.197024
C      -2.195578   -0.530856   -1.315243
O      -2.413334   -1.956072   -1.176443
C      -1.464820   -2.057519   -0.104548
C      -0.223365   -2.719578   -0.523543
N       0.762894   -3.216070   -0.866146
H       1.125602    1.746107   -0.165172
H      -0.453532    1.901577   -0.962824
H      -0.323258    1.993535    0.806305
H       0.529091   -0.420076   -0.634483
H      -2.428082    1.072564    1.114587
H      -3.195932   -0.512501    1.213958
H      -1.711037   -0.183869    2.141981
H      -3.142307    0.016814   -1.353144
H      -1.595761   -0.298880   -2.204771
H      -1.874421   -2.585127    0.763819
