23

C      -0.146415    1.537625   -0.016537
C       0.016244    0.009335   -0.005270
C       0.646343   -0.513481   -1.336833
C       2.047048   -1.071526   -1.112318
C       2.889288   -0.199796   -0.164135
C       2.179332   -1.052940    0.913684
C       2.960835   -1.552656    2.107455
C       0.801917   -0.477077    1.257692
O       1.962097   -2.101159   -0.088195
H       0.818865    2.051490   -0.086488
H      -0.753614    1.861335   -0.868859
H      -0.639621    1.886842    0.897217
H      -0.993528   -0.406922    0.062786
H       0.033202   -1.316349   -1.759564
H       0.677014    0.290087   -2.083100
H       2.507931   -1.445245   -2.031317
H       3.953698   -0.435601   -0.227029
H       2.742755    0.881671   -0.165816
H       3.191915   -0.728236    2.790441
H       2.384559   -2.302085    2.660546
H       3.898756   -2.012271    1.783651
H       0.911782    0.350190    1.969603
H       0.240185   -1.264734    1.771603
