16

O       0.008411   -0.065580   -0.131826
C      -0.015863    1.127740    0.043317
C      -1.299612    1.936195    0.088453
C      -1.353409    2.847292    1.329269
C      -0.068005    3.590564    1.544851
C       1.105004    3.194960    1.029173
C       1.272400    1.933054    0.205568
C       2.290743    3.958908    1.266155
N       3.270579    4.553519    1.433804
H      -1.318832    2.568192   -0.810146
H      -2.150187    1.253716    0.042370
H      -2.180731    3.559256    1.235572
H      -1.579389    2.252110    2.225944
H      -0.100134    4.487880    2.155264
H       2.033799    1.277969    0.640522
H       1.638509    2.188723   -0.799247
