21

C       0.205181    1.517427    0.097480
C      -0.183568    0.049854   -0.117931
C       0.566020   -0.576315   -1.275999
C       1.940019   -1.197173   -1.100237
C       0.748070   -2.056049   -1.451754
C       0.178654   -3.079732   -0.499600
O       0.631619   -2.467690   -2.815819
C       1.566315   -3.320492   -3.282622
O       1.531567   -3.769504   -4.389440
H       1.275090    1.614241    0.309166
H      -0.011908    2.117732   -0.792504
H      -0.346276    1.952398    0.936389
H       0.009345   -0.512698    0.802761
H      -1.263479   -0.021113   -0.300730
H       0.432768   -0.058456   -2.222935
H       2.688384   -1.013546   -1.862723
H       2.335890   -1.286324   -0.092989
H       0.220403   -2.727644    0.533193
H      -0.865089   -3.293581   -0.750351
H       0.738722   -4.019597   -0.554090
H       2.356723   -3.540969   -2.541613
