18

O      -0.053988    1.399717   -0.272704
C       0.007278    0.029891    0.111296
C      -1.414021   -0.495044    0.113058
C      -2.011943   -0.731889   -1.296411
O      -1.222882   -1.978516   -1.369071
C      -1.537045   -2.038793    0.069533
C      -3.060681   -2.303488    0.011621
N      -3.906730   -1.138713    0.363585
C      -3.420128   -1.311759   -1.026840
H       0.845854    1.733461   -0.330463
H       0.624008   -0.555062   -0.583054
H       0.433910   -0.078219    1.122272
H      -2.032145    0.041846    0.830087
H      -1.857290   -0.058083   -2.136792
H      -0.900821   -2.722170    0.632299
H      -3.457070   -3.310373    0.053923
H      -4.877064   -1.447760    0.404310
H      -4.114542   -1.504838   -1.835053
