20

C       0.091361    1.425183    0.003812
N      -0.048918   -0.014725   -0.050273
C      -1.243825   -0.643498   -0.035373
C      -2.482609   -0.079931   -0.023465
C      -3.512320   -1.106204    0.007322
O      -4.718506   -0.962186    0.025791
C      -2.797578   -2.474144    0.023830
C      -1.288060   -2.165712   -0.042403
C      -0.591641   -2.772465   -1.271921
H       1.150808    1.685190   -0.031063
H      -0.408715    1.898186   -0.849396
H      -0.341074    1.839587    0.923753
H       0.782966   -0.574187    0.021117
H      -2.710998    0.976706   -0.024336
H      -3.079658   -3.018278    0.929869
H      -3.138697   -3.074484   -0.825470
H      -0.775965   -2.532478    0.857676
H      -1.071755   -2.428140   -2.193727
H       0.468557   -2.502448   -1.326329
H      -0.653005   -3.864399   -1.243352
