21

C       0.758473    1.479243   -0.031344
C      -0.098831    0.193285    0.045155
C      -0.088190   -0.493625   -1.297745
C       0.312453   -1.703297   -1.686654
C       0.880752   -2.829655   -0.865367
C       0.185427   -3.092320    0.475358
C       0.397586   -2.013968    1.515374
O       1.570189   -1.194161    1.394197
C       0.283711   -0.565970    1.300671
H       1.812867    1.220091   -0.161592
H       0.451430    2.105818   -0.873810
H       0.660640    2.070775    0.884921
H      -1.137435    0.518669    0.221332
H      -0.459412    0.165587   -2.082751
H       0.233501   -1.913088   -2.751937
H       0.835766   -3.749632   -1.457656
H       1.943915   -2.641651   -0.669574
H      -0.892394   -3.235910    0.326338
H       0.568790   -4.034296    0.887569
H       0.214617   -2.352278    2.538418
H       0.046113    0.020487    2.193636
