23

C       0.523918    1.504442    0.106926
C       0.216756    0.005435    0.035905
C       0.715569   -0.759399    1.268010
C       0.485165   -2.272951    1.214529
O      -0.889378   -2.600896    1.110833
C       1.447171   -3.036316    0.240716
C       2.315623   -3.440605    1.452367
O       3.441239   -2.578437    1.527645
C       1.143501   -3.039347    2.390759
H       1.602830    1.681129    0.174459
H       0.152775    2.031928   -0.777310
H       0.059137    1.960738    0.987841
H      -0.869261   -0.125146   -0.069992
H       0.670241   -0.416574   -0.870478
H       1.789689   -0.586133    1.397012
H       0.214348   -0.370889    2.164851
H      -1.244974   -2.167015    0.328141
H       0.939449   -3.895002   -0.203968
H       1.965499   -2.466318   -0.533833
H       2.629632   -4.490957    1.497409
H       3.834078   -2.683066    2.400499
H       1.400907   -2.463240    3.284687
H       0.529176   -3.897951    2.672737
