16

N      -0.032906   -1.083927    0.479941
C      -0.005587    0.027791    0.166718
C       0.053082    1.442643   -0.218043
C       1.440480    2.000076   -0.132271
C       2.218711    2.594055   -1.038589
C       3.470508    2.913766   -0.198005
C       3.707218    1.560478    0.539640
C       2.347555    2.048619    1.121002
O       2.870672    3.413902    1.044991
H      -0.340060    1.546954   -1.234883
H      -0.627512    1.996669    0.443234
H       2.051829    2.807691   -2.084209
H       4.261579    3.538678   -0.608645
H       3.731497    0.637239   -0.041958
H       4.517407    1.615118    1.269600
H       1.952349    1.757583    2.093484
