21

C       1.533857   -2.233588    1.243616
C       0.424086   -1.707010    0.330190
O      -0.215321   -0.562368    0.897710
C       0.896445   -1.427222   -1.096514
C       2.006076   -0.400635   -1.240098
C       0.796191   -2.536598   -2.094962
N      -0.079753   -1.376142   -2.190307
C      -1.503653   -1.554059   -1.938748
H       1.981218   -3.145701    0.836281
H       2.333892   -1.495238    1.367538
H       1.124702   -2.455784    2.232957
H      -0.367051   -2.460901    0.291741
H       0.460831    0.102621    1.065046
H       2.940908   -0.737947   -0.780890
H       2.190212   -0.206565   -2.298654
H       1.723375    0.554332   -0.781015
H       1.542945   -2.647772   -2.878410
H       0.358145   -3.476551   -1.756013
H      -1.757724   -2.429724   -1.321850
H      -1.895194   -0.663198   -1.440834
H      -2.012308   -1.670549   -2.901311
