17

C      -0.024959    1.556399    0.013129
C       1.486099    1.946353    0.001400
C       2.203942    0.552589   -0.011727
C       1.239794   -0.249350   -0.916260
C       0.021092   -0.010736    0.004978
C       0.611568   -0.423237    1.345661
C       1.906017   -0.088981    1.335834
H      -0.557254    1.943345    0.885066
H      -0.537043    1.928569   -0.879683
H       1.741163    2.516385   -0.897414
H       1.777283    2.545898    0.866902
H       3.252972    0.591206   -0.307280
H       1.121017    0.181201   -1.916740
H       1.511532   -1.304719   -0.997651
H      -0.919770   -0.485591   -0.275373
H       0.035852   -0.805458    2.179822
H       2.606631   -0.141685    2.160293
