22

C       0.116945    1.613441    0.054792
C      -0.010585    0.083308   -0.010188
C       0.640409   -0.464503   -1.296031
C       0.130282   -1.841823   -1.758975
C      -0.259105   -2.808616   -0.622222
C       0.702334   -2.845955    0.540272
N       1.542018   -3.783632    0.678243
O       0.515488   -1.895432    1.516680
C       0.649089   -0.495146    1.250937
H       1.168699    1.922471    0.032574
H      -0.381505    2.078655   -0.800623
H      -0.331693    2.019218    0.967345
H      -1.078812   -0.169593    0.001146
H       0.496880    0.253180   -2.111670
H       1.725389   -0.510622   -1.130540
H      -0.749304   -1.713262   -2.400002
H       0.898058   -2.312781   -2.381485
H      -1.242389   -2.535977   -0.225221
H      -0.330597   -3.822369   -1.020814
H       2.078321   -3.637404    1.536968
H       1.722198   -0.248826    1.219893
H       0.228026   -0.018890    2.141101
