16

C       0.022106    1.495460    0.065109
C      -0.026162   -0.007990   -0.007870
C       0.730611   -0.706525   -1.191744
O       0.972271   -2.016203   -0.674387
C       0.422457   -1.955540    0.666326
O       0.696583   -0.639458    1.076285
C      -1.095910   -1.953888    0.507218
C      -1.372842   -0.726766    0.065864
H       1.057725    1.846946    0.064110
H      -0.492746    1.935264   -0.794789
H      -0.465334    1.851541    0.976659
H       0.139917   -0.753689   -2.112568
H       1.685420   -0.205048   -1.387008
H       0.909301   -2.701181    1.290929
H      -1.742193   -2.815665    0.596072
H      -2.307459   -0.326295   -0.303079
