21

C       0.217117    1.368933   -0.199445
C       0.105467   -0.096515    0.134250
O       1.322588   -0.822630    0.344683
C       0.408398   -0.696120    1.445011
C       0.883930    0.056198    2.666375
C       1.902694   -0.736691    3.470314
O       1.414186   -1.957156    3.973525
C       3.362831   -0.666565    3.110438
C       2.848931   -0.017797    4.383229
H       0.944726    1.879271    0.434221
H       0.533113    1.492468   -1.240623
H      -0.754699    1.861295   -0.084681
H      -0.615569   -0.636561   -0.484341
H      -0.113121   -1.626994    1.680997
H       1.320376    1.016306    2.379567
H       0.016382    0.263359    3.306797
H       1.482815   -2.612829    3.271303
H       3.942079   -1.576756    3.220155
H       3.659154   -0.036305    2.279966
H       2.801532    1.064720    4.434305
H       3.080374   -0.511306    5.319733
