25

C       0.286059    1.507951    0.173833
C       0.007595   -0.002961    0.005227
C       0.628154   -0.733591    1.214233
C      -1.522026   -0.204349    0.022905
C       0.608101   -0.562227   -1.327057
C       0.355813   -2.058304   -1.536710
C       0.311338    0.294552   -2.590958
O       1.670639    0.764984   -2.654736
C       2.077969   -0.140502   -1.612027
H       1.354601    1.734500    0.208753
H      -0.155261    2.106021   -0.627341
H      -0.150640    1.854277    1.116317
H       0.268033   -0.290466    2.148569
H       0.367194   -1.795135    1.236019
H       1.720890   -0.653833    1.214542
H      -1.998871    0.261563   -0.846568
H      -1.801113   -1.261429    0.034856
H      -1.953095    0.256422    0.917836
H      -0.711786   -2.292744   -1.580605
H       0.799821   -2.384171   -2.482611
H       0.800298   -2.665214   -0.742514
H       0.041951   -0.297195   -3.476855
H      -0.404420    1.117816   -2.493183
H       2.626098    0.371518   -0.813888
H       2.707276   -0.953552   -1.999934
