16

O       0.007424   -0.026118   -0.101636
C       0.053093    1.156962   -0.245789
O       1.005972    1.917660    0.341391
C       0.990973    3.307386    0.176209
C       0.362824    4.036515   -1.045780
C       1.384020    5.131590   -0.738399
C       2.276934    4.205930   -0.005982
N       1.562967    5.267054    0.753363
C       0.647220    4.236715    1.347961
H      -0.654995    1.743530   -0.855714
H       0.610314    3.543621   -1.989516
H      -0.704906    4.276252   -1.009562
H       1.629771    6.001810   -1.331411
H       3.342839    4.026703    0.015580
H      -0.395444    4.546230    1.483490
H       1.072708    3.898463    2.295016
