21

C      -0.290837    1.436851    0.004886
C       0.008905   -0.065291    0.003028
C       0.784583   -0.546551   -1.215042
C       1.007292   -2.071270   -1.382564
C       0.638302   -1.848863   -2.874299
C      -0.275248   -2.789223   -3.524106
N      -0.991220   -3.540206   -4.033317
N       0.056377   -0.544219   -2.511706
C       0.245752    0.543702   -3.450284
H       0.627338    2.028106   -0.086253
H      -0.952619    1.709671   -0.822559
H      -0.786991    1.734957    0.933273
H       0.594422   -0.325305    0.895262
H      -0.927989   -0.631411    0.061536
H       1.742182   -0.001211   -1.291483
H       2.003914   -2.464766   -1.187310
H       0.261505   -2.666370   -0.853682
H       1.543013   -1.759626   -3.498265
H      -0.279942    0.315743   -4.383182
H      -0.177007    1.466241   -3.044648
H       1.310138    0.727449   -3.689043
