16

O      -0.130639    0.339813    0.477907
C      -0.032291    1.374978   -0.128823
C       1.230790    2.198717   -0.231775
C       1.677840    2.366022   -1.699625
N       2.808554    3.265002   -1.847666
C       2.642223    4.618693   -1.825279
O       1.554093    5.157053   -1.717213
C       3.886645    5.365589   -1.951560
C       4.897261    6.009193   -2.049895
H      -0.903728    1.801653   -0.678322
H       1.017229    3.200105    0.162602
H       2.012249    1.731365    0.373179
H       1.956006    1.398944   -2.127314
H       0.851059    2.773524   -2.289111
H       3.744114    2.893283   -1.869013
H       5.782694    6.590935   -2.136408
