19

C       0.120865    1.333484   -0.538893
C      -0.093540    0.039504    0.258874
O       0.202133    0.249344    1.612479
C      -1.518502   -0.505147    0.119972
O      -2.176977   -0.696466    1.122114
C      -2.053362   -0.808611   -1.266363
C      -3.345607   -1.589761   -1.241043
C      -4.650531   -0.932646   -1.346768
O      -4.078403   -1.616937   -2.465629
H       1.130240    1.703007   -0.343586
H       0.016541    1.170075   -1.615511
H      -0.589852    2.102737   -0.221751
H       0.572961   -0.737834   -0.158452
H      -0.584142   -0.051442    2.096502
H      -2.203449    0.137475   -1.801526
H      -1.286164   -1.349584   -1.836067
H      -3.299897   -2.546137   -0.721025
H      -5.529016   -1.402010   -0.908119
H      -4.700038    0.151720   -1.438039
