19

O      -1.935500    0.807818    1.586652
C      -0.730060    0.320623    0.793735
C      -1.110700   -0.697766   -0.190721
C      -1.405792   -2.120279    0.228772
C      -2.909890   -2.348608    0.343142
C      -3.622664   -2.466914    1.640804
N      -3.675173   -1.181095    0.903092
H      -3.067663   -0.369210    1.232203
H      -4.532539   -0.927455    0.427705
N      -1.574853   -0.272134   -1.357668
O      -2.215557   -1.135290   -2.058868
H      -2.283850    1.541616    1.065051
H      -0.307923    1.201761    0.306193
H      -0.055615   -0.035085    1.576878
H      -1.063756   -2.801522   -0.557933
H      -0.910480   -2.377094    1.171646
H      -3.387655   -2.738109   -0.545516
H      -4.567032   -2.995462    1.711367
H      -3.054051   -2.403341    2.563144
