22

C      -0.044746    1.589373    0.015516
C      -0.021780    0.058800    0.010256
C       0.716054   -0.520873   -1.202917
C       0.746897   -2.062109   -1.244311
C       1.354258   -2.581112   -2.566061
C       1.237430   -4.097572   -2.747844
C       1.571775   -2.582734   -0.084174
O       1.192651   -3.334447    0.776166
H       0.970173    2.001587    0.040174
H      -0.537962    1.981733   -0.880953
H      -0.581841    1.976132    0.886856
H       0.443459   -0.304326    0.935461
H      -1.049610   -0.326041    0.022387
H       0.243475   -0.159219   -2.125034
H       1.747266   -0.139093   -1.224205
H      -0.268991   -2.458076   -1.126792
H       0.853463   -2.069220   -3.396376
H       2.409308   -2.278555   -2.617826
H       1.683771   -4.412937   -3.695698
H       1.740724   -4.643238   -1.943175
H       0.188808   -4.413289   -2.749426
H       2.624193   -2.202113   -0.088026
