11

N       0.051393   -1.147129   -0.004703
C      -0.008549    0.007803    0.003475
C      -0.028433    1.445361    0.011005
N      -1.219668    2.057805    0.029954
C      -1.188904    3.387016    0.036418
C       0.011094    4.101124    0.024148
N       1.196690    3.491305    0.005270
C       1.175860    2.160355   -0.001307
H      -2.145843    3.901092    0.051770
H       0.013253    5.187599    0.029685
H       2.129007    1.640107   -0.016604
