23

C       0.053075    1.563414    0.048014
C      -0.000507    0.034015    0.034487
C      -1.427311   -0.513854   -0.040040
O      -2.109972   -0.081322   -1.216993
C      -1.466871   -2.044402    0.062383
O      -0.850936   -2.421928    1.281368
C      -2.891861   -2.587291    0.011902
O      -2.796719   -3.985276    0.229242
C      -4.049537   -4.622496    0.326629
H       1.086443    1.922723    0.040690
H      -0.462245    1.980565   -0.821726
H      -0.433174    1.964787    0.943965
H       0.564663   -0.355375   -0.826499
H       0.478812   -0.380250    0.926338
H      -2.013756   -0.104727    0.792612
H      -1.560100   -0.315993   -1.973495
H      -0.910831   -2.468229   -0.795116
H      -1.116364   -3.337830    1.432463
H      -3.497431   -2.119429    0.805913
H      -3.362010   -2.364855   -0.955037
H      -4.647245   -4.219062    1.158468
H      -4.632264   -4.512284   -0.600445
H      -3.864651   -5.684756    0.503997
