16

C      -0.067226    1.456928    0.102321
N       0.011775    0.018257   -0.017699
C       0.605907   -0.626443   -1.055376
C       1.200457    0.026031   -2.111705
C       1.821472   -0.670843   -3.196191
O       2.368547   -0.217242   -4.166166
O       1.782205   -2.099403   -3.107397
C       1.200646   -2.710113   -2.074481
C       0.613376   -2.068790   -1.048712
H       0.930139    1.912840    0.138317
H      -0.614269    1.901107   -0.738700
H      -0.593151    1.706979    1.025081
H      -0.396063   -0.541759    0.709449
H       1.230698    1.104152   -2.179734
H       1.254440   -3.790748   -2.154399
H       0.160173   -2.631920   -0.242614
