15

O      -0.144207    1.305249   -0.044498
N       0.017307   -0.085506    0.029554
C      -1.098984   -0.675827   -0.053457
C      -2.569445   -0.263985   -0.083214
C      -2.909226   -1.759713    0.074850
C      -2.335678   -2.563619   -1.064477
C      -2.225738   -2.049280   -2.405487
N      -2.149257   -1.633103   -3.481826
C      -1.414190   -2.125279    0.074605
H       0.763696    1.620801    0.020114
H      -2.829725    0.333593    0.794158
H      -2.937314    0.234639   -0.983008
H      -3.697926   -2.167448    0.692784
H      -2.575626   -3.622225   -1.025703
H      -0.863699   -2.864173    0.642019
