21

O       0.011264   -0.113851   -0.260630
C       0.087394    1.067291   -0.037861
C       1.348842    1.879946   -0.039141
C       1.337542    3.191402   -0.885724
C       2.053558    3.921940    0.282432
C       3.561623    4.234800    0.070638
C       3.184808    5.726965   -0.134805
C       1.814111    5.429200    0.532320
C       1.609880    2.773379    1.215194
H      -0.827127    1.666309    0.198401
H       2.195505    1.233352   -0.276807
H       1.835695    3.155643   -1.857815
H       0.315544    3.562001   -1.027747
H       4.133697    4.084234    0.992029
H       4.075306    3.717910   -0.745047
H       3.824202    6.476295    0.336501
H       3.077771    5.980340   -1.192939
H       0.918454    5.871842    0.086499
H       1.821390    5.664661    1.601910
H       0.674506    3.011810    1.735498
H       2.331781    2.400470    1.946284
