16

C       0.467326    1.479745   -0.096255
C       0.108304    0.020281    0.073260
O       0.860365   -0.861915   -0.804917
C       1.264417   -1.707314    0.291990
C       0.580566   -0.766594    1.324105
N       1.915186   -0.465321    1.842271
C       2.595548   -1.242616    0.891035
N       3.797629   -1.480049    0.590534
H       1.523522    1.653812    0.126826
H       0.284969    1.790630   -1.129223
H      -0.145431    2.106208    0.561280
H      -0.967193   -0.135463   -0.092757
H       1.068232   -2.766905    0.130727
H      -0.158024   -1.055071    2.071451
H       2.228278    0.408150    2.244634
H       4.449308   -0.932484    1.156268
