14

O       0.114884    1.343659    0.218925
C       0.080729    0.009741   -0.004840
C       0.086000   -0.804563   -1.103577
N       0.046642   -2.126924   -0.698944
C       0.016455   -2.106051    0.604323
N       0.043513   -0.816461    1.096091
C      -0.006632   -0.385436    2.475876
C      -1.367642   -0.071878    2.940411
N      -2.431857    0.172723    3.315181
H       0.100826    1.803509   -0.626208
H       0.120112   -0.525405   -2.145003
H      -0.018527   -2.960352    1.263897
H       0.410384   -1.175007    3.107519
H       0.618508    0.503594    2.599328
