17

C       0.008049    1.535615   -0.036958
O       1.457308    1.500685    0.024416
C       1.462473    0.086159    0.169446
C       2.494150   -0.838249   -0.472865
O       2.578022   -1.622695    0.742480
C       1.815657   -0.626896    1.489870
C       0.494277   -1.079670    2.050439
C      -0.523739   -0.713211    1.263005
C      -0.066348   -0.016276    0.009609
H      -0.424555    2.053608    0.825929
H      -0.340833    2.005229   -0.962801
H       2.178964   -1.436141   -1.335730
H       3.440942   -0.330914   -0.702663
H       2.455644   -0.094124    2.202755
H       0.395858   -1.613792    2.988736
H      -1.570151   -0.906539    1.476000
H      -0.450673   -0.468548   -0.908306
