17

N      -0.341816    0.962247   -0.951833
C      -0.668125   -0.043831   -0.266118
O      -0.805344   -1.248044   -0.869951
C      -1.018579   -2.352366   -0.035648
C      -2.309606   -2.461022    0.749981
C      -2.097081   -3.300567   -0.483736
O      -2.718019   -3.135089   -1.735351
C      -3.593331   -2.169101   -2.062573
N      -4.088357   -1.301396   -1.287903
H      -0.295768    1.785513   -0.354853
H      -0.872050   -0.074567    0.811083
H      -0.103117   -2.772047    0.375140
H      -2.283682   -2.976237    1.704702
H      -3.006462   -1.640507    0.666654
H      -1.903527   -4.358605   -0.349534
H      -3.811458   -2.283820   -3.128807
H      -4.725280   -0.702072   -1.807531
