19

C      -0.063356    1.446969    0.208167
C      -0.110091   -0.039880    0.005679
C       0.369778   -0.774826   -1.269902
C      -0.422905   -1.941387   -0.665323
C       0.032355   -2.045583    0.842542
O       0.635070   -0.750158    1.032941
C      -1.422898   -1.749475    1.279020
O      -1.630671   -1.158288    2.526000
C      -1.434633   -0.920613   -0.019921
H       0.973136    1.799660    0.219864
H      -0.592559    1.959553   -0.600065
H      -0.532819    1.726946    1.156296
H      -0.114457   -0.397137   -2.174559
H       1.449955   -0.863916   -1.413506
H      -0.711365   -2.845917   -1.195549
H       0.656068   -2.834666    1.259398
H      -2.075993   -2.622258    1.191605
H      -0.862062   -0.588865    2.666786
H      -2.322717   -0.528737   -0.511790
