18

C      -0.090036    1.728836    0.168772
C      -0.093485    0.218261    0.070796
C      -1.368332   -0.408252   -0.507020
C      -1.376794   -0.268713   -2.018516
O      -0.869668   -1.082314   -2.749682
N       1.183660   -0.389654   -0.308745
C       0.671807   -0.612223    1.066387
C       1.410895   -0.041391    2.157910
C       2.002021    0.426385    3.094769
H       0.854922    2.079241    0.586032
H      -0.213999    2.182976   -0.820361
H      -0.906056    2.078814    0.810019
H      -1.395555   -1.477966   -0.278936
H      -2.251987    0.072495   -0.073364
H      -1.848954    0.650967   -2.428566
H       1.029089   -1.219204   -0.879465
H       0.243827   -1.589276    1.282302
H       2.536238    0.838502    3.914783
