14

N      -0.815926    1.118829    0.876563
C      -0.241065    0.043910    0.240702
N      -0.595596   -0.533613   -0.857535
C       0.271506   -1.628524   -0.970865
C       1.112204   -1.622725    0.086099
N       2.175207   -2.392092    0.536390
C       2.674288   -3.476247   -0.133710
O       2.251286   -3.881687   -1.192403
O       0.801352   -0.549215    0.891803
H      -0.164043    1.713653    1.368813
H      -1.428320    1.635663    0.261662
H       0.236986   -2.322044   -1.790870
H       2.580350   -2.133729    1.423036
H       3.515482   -3.938482    0.415070
