23

C      -0.004188    1.579406   -0.013661
C       0.092946    0.055290    0.003422
C       0.785992   -0.572103   -1.229719
C       1.249694   -1.960837   -0.764914
C       0.776082   -3.173372   -1.531428
C       2.568372   -1.992557   -0.039641
C       1.285281   -1.924330    0.755611
C       0.836512   -0.546353    1.230409
O       1.977848    0.215047    1.625146
H       0.991242    2.034106   -0.054755
H      -0.561852    1.929172   -0.888283
H      -0.520954    1.963129    0.874799
H      -0.923147   -0.360727    0.046170
H       0.099180   -0.641788   -2.079375
H       1.631784    0.045105   -1.555761
H       1.183874   -3.186999   -2.549403
H       1.089622   -4.100265   -1.039713
H      -0.317486   -3.193086   -1.614086
H       3.106372   -2.935270   -0.015972
H       3.200847   -1.112518   -0.050242
H       0.997749   -2.790331    1.341659
H       0.149267   -0.639487    2.083901
H       1.665379    1.067537    1.943990
