16

C       0.107646    1.653099    0.042384
C       0.115093    0.134258    0.000042
C       0.771003   -0.623550   -1.210790
O       1.822958    0.118408   -1.769662
C       1.340485   -1.694850   -0.212859
O       2.663069   -2.107002   -0.435149
C       1.127684   -0.624174    0.864466
O       1.785238   -0.358388    1.832015
H       1.086091    2.041691   -0.246398
H      -0.641083    2.061643   -0.642558
H      -0.122811    2.004835    1.052022
H      -0.886066   -0.281311    0.172548
H       0.079667   -0.991258   -1.976723
H       2.592241   -0.470443   -1.769837
H       0.665196   -2.552578   -0.107043
H       3.182600   -1.793662    0.317711
