18

O      -0.014771    1.452151    0.250928
C       0.046666    0.044011    0.145270
C       0.638401   -0.678931    1.373180
C      -0.095055   -2.032641    1.373456
N      -1.459397   -1.761211    0.893717
C      -2.369785   -1.107490    1.879584
C      -2.469171    0.104876    0.941794
O      -3.150551    1.081971    0.894965
C      -1.392443   -0.528597    0.040227
H       0.881374    1.798774    0.201002
H       0.601450   -0.249889   -0.758878
H       1.726671   -0.777293    1.325733
H       0.391582   -0.093531    2.266234
H       0.389482   -2.732318    0.681270
H      -0.124057   -2.515589    2.354024
H      -3.302869   -1.651868    2.059187
H      -1.912480   -0.865147    2.849932
H      -1.701796   -0.669796   -0.999681
