21

C       0.005020    1.478081   -0.030303
C       0.049701   -0.021136   -0.099082
C       0.616756   -0.961828   -1.188216
C       0.080824   -1.958805   -0.133949
C       0.084315   -3.460186   -0.119168
C       0.464284   -1.004372    1.039743
O      -0.852268   -1.036764    1.665031
C      -1.125632   -1.015210    0.223116
C      -2.545597   -1.029608   -0.244337
H       1.011326    1.909781   -0.064276
H      -0.565188    1.899444   -0.865739
H      -0.470798    1.796439    0.903387
H       0.109682   -0.952509   -2.158865
H       1.702085   -0.941794   -1.332449
H       1.103943   -3.857870   -0.167921
H      -0.380629   -3.827028    0.802129
H      -0.472440   -3.869305   -0.969627
H       1.346901   -1.001732    1.680823
H      -3.087161   -0.158264    0.137509
H      -2.587569   -1.009931   -1.338258
H      -3.058397   -1.931652    0.104508
