20

C      -0.367020    1.501984    0.097596
C       0.190305    0.072831    0.057328
C       0.766004   -0.313837   -1.282717
O       1.767502   -1.337871   -1.282303
C       2.147454   -0.032898   -1.729275
C       2.186294    0.146659   -3.244398
C       0.744867   -0.067766   -3.711372
N       0.213301   -1.422958   -3.480011
C      -0.114367   -0.340652   -2.526681
H       0.411011    2.235368   -0.138367
H      -1.182872    1.642435   -0.618947
H      -0.759932    1.736165    1.091299
H       0.981347   -0.043767    0.805281
H      -0.598284   -0.641815    0.326886
H       2.885335    0.470174   -1.105709
H       2.507063    1.167416   -3.482432
H       2.885477   -0.547824   -3.720372
H       0.382022    0.493388   -4.567328
H      -0.587813   -1.567129   -4.091884
H      -1.137917    0.010197   -2.453474
