21

C       0.088310    1.618661   -0.159623
C       0.055851    0.090624   -0.079996
C       0.672840   -0.445323    1.218177
C       0.653581   -1.973675    1.331629
C       1.489560   -2.577586    2.468982
O       0.920926   -3.861169    2.731412
C      -0.480929   -3.737123    2.606020
C      -0.721875   -2.581669    1.629345
O      -1.794012   -2.219079    1.219211
H       1.114108    2.000715   -0.102260
H      -0.347725    1.976183   -1.097410
H      -0.478436    2.069638    0.662551
H      -0.974274   -0.269329   -0.157252
H       0.599726   -0.333618   -0.934912
H       1.713749   -0.102056    1.294922
H       0.146147   -0.014934    2.080312
H       0.987383   -2.421119    0.383532
H       2.540683   -2.728256    2.214387
H       1.437240   -1.936968    3.365586
H      -0.905588   -4.676628    2.239943
H      -0.966757   -3.493129    3.566233
