20

C       0.057890    1.566027    0.072051
C       0.136101    0.037674    0.072661
C       0.577377   -0.532762   -1.290088
C       0.656391   -2.028351   -1.325250
C      -0.071533   -2.884304   -2.038744
C       0.361247   -4.295557   -1.768564
O       1.411282   -4.186101   -0.809807
C       1.653665   -2.817043   -0.508917
H       1.031334    2.012435   -0.159885
H      -0.656720    1.926091   -0.676473
H      -0.260033    1.948267    1.046871
H       0.832915   -0.292833    0.852359
H      -0.840462   -0.386827    0.335159
H      -0.116027   -0.188390   -2.066308
H       1.560455   -0.108516   -1.542965
H      -0.862963   -2.630322   -2.733614
H      -0.449914   -4.919962   -1.360538
H       0.731241   -4.803624   -2.674381
H       2.692820   -2.549386   -0.766086
H       1.541321   -2.651970    0.574370
