14

C       0.018525    1.438725   -0.050624
O       0.017912    0.002462   -0.031221
C       0.591590   -0.646623   -1.033430
C       0.637981   -2.012924   -1.097296
N       1.239081   -2.623307   -2.148492
C       1.772925   -1.913667   -3.098416
C       1.779823   -0.465438   -3.129522
O       2.232417    0.291606   -3.936596
O       1.126566    0.109787   -1.985980
H       1.039646    1.827663   -0.048876
H      -0.510862    1.816433   -0.928721
H      -0.500493    1.734041    0.860235
H       0.199211   -2.617877   -0.316247
H       2.251284   -2.413047   -3.934719
