16

C      -0.549154    1.362800   -0.103593
C       0.030727   -0.039583   -0.035911
O       1.262871   -0.202092   -0.795031
C       2.077390   -0.537602    0.351878
C       2.696474   -1.928638    0.273360
C       3.076054    0.500596    0.623867
N       3.849999    1.327339    0.855896
C       0.791766   -0.417073    1.238108
O       0.540748   -0.586076    2.385877
H       0.183889    2.108016    0.215878
H      -0.851945    1.588961   -1.129632
H      -1.429159    1.430795    0.543046
H      -0.712926   -0.790560   -0.333436
H       3.413098   -1.972090   -0.550620
H       3.214762   -2.161516    1.207284
H       1.914351   -2.672175    0.102287
