18

C      -0.003219    1.392699    0.022901
N       0.001907   -0.042340   -0.156384
C      -1.190649   -0.869346   -0.060761
C      -2.131470   -0.672613   -1.264838
O      -1.513645   -0.983841   -2.491446
C      -0.609634   -2.259107    0.030402
C       0.721664   -2.212668    0.034271
C       1.167107   -0.791875   -0.030595
O       2.293532   -0.342860    0.017048
H       1.037559    1.722221    0.008103
H      -0.549525    1.900171   -0.779638
H      -0.453945    1.680477    0.982258
H      -1.759682   -0.628663    0.853292
H      -2.992673   -1.341210   -1.160424
H      -2.516256    0.360127   -1.249887
H      -0.659045   -0.536274   -2.499637
H      -1.239246   -3.139041    0.059308
H       1.426060   -3.030108    0.087362
