14

N       0.038785    1.513838   -0.109466
C       0.064274    0.106192   -0.036576
C      -0.996937   -0.753942   -0.050238
O      -2.316832   -0.493059   -0.067466
O      -0.607746   -2.044732   -0.060295
C       0.779988   -2.038049   -0.033950
C       1.215121   -0.739995   -0.025901
C       1.439512   -3.272097   -0.027548
C       2.016315   -4.331522   -0.021222
H       0.580549    1.942373    0.632885
H      -0.909568    1.865483   -0.051509
H      -2.791294   -1.321053   -0.205639
H       2.246825   -0.424791   -0.020344
H       2.525968   -5.262640   -0.017083
