16

C      -0.071859    1.527421   -0.027944
C      -0.009733    0.033842    0.009241
C       0.050417   -0.831726   -1.038473
O       0.075636   -2.122159   -0.622596
C       0.048097   -2.090768    0.759594
N       0.057733   -3.277131    1.495458
C      -0.012151   -0.797838    1.186723
N      -0.146487   -0.354766    2.510599
H       0.808615    1.987621    0.439125
H      -0.123928    1.894489   -1.056764
H      -0.950298    1.902534    0.509928
H       0.082704   -0.676569   -2.105398
H      -0.787301   -3.827872    1.371863
H       0.849574   -3.870525    1.267235
H       0.029058   -1.114494    3.158818
H       0.467212    0.421516    2.728096
