27

C      -1.177167    0.951754   -1.274498
C      -0.781204   -0.423851   -0.703412
C      -0.258812   -0.278389    0.734688
C      -2.019160   -1.335437   -0.697083
O       0.105242   -1.121728   -1.594855
C       1.520604   -0.928182   -1.758292
C       2.313045   -1.634710   -0.641115
C       1.794237   -1.643278   -3.091461
C       1.955870    0.540877   -1.879182
H      -0.370331    1.683033   -1.200484
H      -1.456590    0.849639   -2.326966
H      -2.037664    1.353313   -0.728873
H      -1.047234    0.148126    1.363582
H       0.016505   -1.250200    1.152557
H       0.604632    0.388229    0.800524
H      -2.395982   -1.463283   -1.715499
H      -1.759483   -2.322725   -0.305295
H      -2.816376   -0.910352   -0.079726
H       1.929857   -2.649275   -0.499623
H       3.371306   -1.703136   -0.914625
H       2.253178   -1.106536    0.312128
H       1.232629   -1.165400   -3.898860
H       2.859579   -1.616247   -3.339846
H       1.476073   -2.687500   -3.029145
H       1.816831    1.096133   -0.948263
H       3.021875    0.582310   -2.126064
H       1.405756    1.049031   -2.675418
