15

O      -0.065719    1.361268    0.066603
C       0.028031   -0.000561    0.026546
C       0.702641   -0.990432    1.068272
C       0.025685   -1.941323    0.022736
C      -1.195364   -0.968986    0.038030
C       0.020398   -3.421197    0.007718
O      -0.970999   -4.091540   -0.148166
C       0.628997   -0.940634   -1.028270
O       1.243418   -0.932481   -2.044474
H       0.764474    1.743949   -0.240214
H       1.791637   -1.001480    1.142290
H       0.216194   -0.992460    2.045788
H      -1.752915   -0.973728    0.976458
H      -1.850987   -0.966832   -0.832636
H       1.021889   -3.888202    0.135449
