18

C      -0.510317    1.469617   -0.013248
C      -0.051493    0.023782    0.002366
C       0.964724   -0.518977   -1.057659
O       1.624867    0.365455   -1.930036
C       1.813065   -0.978954    0.115077
C       2.180957    0.110601    1.053075
C       2.549971    1.462261    0.728214
C       2.961231    2.582784    0.579718
N       0.813981   -0.468094    1.147183
H       0.304568    2.161140   -0.221842
H      -1.284219    1.602667   -0.778176
H      -0.952131    1.731807    0.953562
H      -0.928161   -0.631391    0.022306
H       0.546526   -1.373679   -1.605217
H       1.016490    0.604104   -2.636866
H       2.273626   -1.958270    0.199557
H       2.754670   -0.260318    1.901872
H       3.303218    3.573196    0.407580
