16

C      -0.022571    1.345851    0.126992
N      -0.102037   -0.104696    0.168502
C      -1.264697   -0.776776    0.075930
N      -1.463419   -2.056518    0.282767
C      -2.803340   -2.169947    0.007515
C      -3.486809   -3.502317    0.101596
O      -3.095364   -4.196054    1.268023
N      -3.414208   -1.070470   -0.334942
O      -2.358813   -0.105048   -0.295853
H       1.019946    1.634166   -0.018394
H      -0.606573    1.721542   -0.715552
H      -0.396953    1.816549    1.044855
H       0.648750   -0.623004    0.593905
H      -4.569520   -3.360623    0.138258
H      -3.253910   -4.078821   -0.808887
H      -2.138773   -4.091041    1.340647
