23

C       0.753357    1.745460   -0.168266
C       0.239492    0.304203   -0.014924
C       0.637403   -0.563910   -1.198833
C       0.030643   -0.375075   -2.553888
C       1.574502   -1.449039   -0.856045
C       1.942419   -1.361113    0.600799
C       0.805510   -0.487931    1.204898
C       1.253882    0.350583    2.401157
O      -0.287143   -1.328881    1.600380
H       1.844445    1.775303   -0.260041
H       0.335978    2.206829   -1.068733
H       0.463614    2.369610    0.682156
H      -0.851049    0.338618    0.099336
H       0.193805    0.640450   -2.935960
H       0.447452   -1.077579   -3.280989
H      -1.056455   -0.523923   -2.521390
H       2.034987   -2.156673   -1.538035
H       1.982937   -2.338849    1.099106
H       2.930131   -0.900384    0.745171
H       2.058220    1.044262    2.140811
H       0.414161    0.922840    2.806504
H       1.629756   -0.303749    3.197404
H       0.033610   -1.918184    2.291632
