23

C      -0.095992    1.527235    0.093335
C       0.020853   -0.007257    0.018785
C       0.814526   -0.548249    1.224198
O      -1.288784   -0.583145    0.020962
C       0.674069   -0.429550   -1.275408
C       0.151811   -1.246185   -2.191919
C       1.053881   -1.426425   -3.388207
C       2.401244   -0.839340   -2.898314
C       2.031577    0.091127   -1.717062
H       0.885066    2.010606    0.065875
H      -0.693728    1.898111   -0.743373
H      -0.586235    1.823991    1.028179
H       0.333284   -0.245622    2.162407
H       0.849434   -1.639936    1.186792
H       1.838826   -0.164903    1.242183
H      -1.697998   -0.365664    0.864740
H      -0.827501   -1.699706   -2.112854
H       1.142829   -2.471884   -3.705482
H       0.660404   -0.877888   -4.256803
H       3.037178   -1.651785   -2.531931
H       2.957308   -0.324079   -3.685845
H       1.954364    1.139602   -2.039331
H       2.787245    0.073367   -0.923226
