23

C      -0.371283    1.507931   -0.113552
C       0.113441    0.059201    0.029233
C       0.838096   -0.459434   -1.196688
C       0.024957   -1.030661   -2.334742
C       0.925618   -1.939449   -1.527819
C       2.325581   -2.255701   -2.016766
C       2.819303   -1.676188   -3.320618
C       3.120198   -0.963524   -2.025998
C       2.204271    0.165130   -1.540411
H       0.466791    2.193649   -0.277541
H      -1.053902    1.610658   -0.963717
H      -0.899530    1.839510    0.786012
H       0.774782   -0.019413    0.903417
H      -0.745862   -0.590921    0.236934
H      -1.044110   -1.130181   -2.169226
H       0.276902   -0.789810   -3.361335
H       0.451409   -2.676071   -0.887697
H       2.765548   -3.185369   -1.674033
H       3.648586   -2.184965   -3.801861
H       2.113718   -1.246443   -4.022598
H       4.154533   -0.940219   -1.699548
H       2.121688    0.980319   -2.269073
H       2.630659    0.603034   -0.630310
