16

F      -0.171333    0.146107   -0.192663
C       0.001379    1.456843    0.056527
F       1.325543    1.686300    0.062582
F      -0.517854    2.132056   -0.979831
C      -0.646021    1.867316    1.361023
C      -0.071773    1.115425    2.568506
C      -0.734253    1.547860    3.853247
C       0.016157    1.725970    5.101271
O      -0.395633    2.854532    4.326840
H      -0.498681    2.944147    1.481956
H      -1.721223    1.687909    1.259185
H      -0.209737    0.036624    2.432725
H       1.004286    1.303192    2.634603
H      -1.798870    1.316771    3.931943
H      -0.486914    1.607056    6.059681
H       1.088202    1.533495    5.112241
