15

O       0.177949    1.300644   -0.408631
C       0.020721   -0.053511   -0.081538
C       0.555897   -0.372543    1.324218
O       1.466973    0.228708    1.830738
C      -0.346523   -1.427423    1.960423
C      -1.589381   -1.304223    1.118837
C      -1.419841   -0.531415    0.029806
C      -2.390172   -0.219368   -0.948473
C      -3.192393    0.064185   -1.800993
H       0.907750    1.621499    0.140698
H       0.554881   -0.692162   -0.810460
H       0.122783   -2.419362    1.884753
H      -0.494580   -1.232406    3.028070
H      -2.520033   -1.796267    1.373126
H      -3.903654    0.316020   -2.548166
