14

O      -0.202837    1.430256   -0.123858
C      -0.130780    0.042590   -0.029166
C       0.406160   -0.616822   -1.304582
C       0.446078    0.131904   -2.563564
O       1.632172   -0.086771   -1.788976
C       0.767192   -0.345168    1.142363
O       1.409293    0.471716    1.754409
C       0.817740   -1.774659    1.477804
N       0.818863   -2.904930    1.721658
H       0.530816    1.786159    0.399876
H      -1.132760   -0.373410    0.164067
H       0.324288   -1.704273   -1.328179
H       0.399441   -0.410917   -3.505606
H       0.086257    1.156379   -2.570408
