12

O      -0.208321    0.033227    0.002426
C      -0.026992    1.221722    0.008873
C       1.288492    1.906971   -0.000149
C       1.274047    3.255218    0.010385
O       2.384501    4.013153    0.004467
C       3.574513    3.330543   -0.012846
N       3.734547    2.078205   -0.024229
C       2.596365    1.207730   -0.019920
O       2.743603    0.014691   -0.031129
H      -0.883482    1.937758    0.024135
H       0.371216    3.857299    0.024659
H       4.400324    4.035704   -0.015654
