17

C      -0.548516    1.634656    0.108839
C       0.101366    0.258659    0.006331
N       0.924980   -0.048736    1.165704
C       2.129462   -0.689256    1.078749
N       2.640685   -1.072697   -0.028171
C       2.816927   -0.884500    2.415351
O       3.894586   -1.405381    2.516557
C      -0.923433   -0.861516   -0.193003
O      -2.082776   -0.683477   -0.459410
H       0.212442    2.417514    0.143350
H      -1.199941    1.802345   -0.750732
H      -1.172440    1.709042    1.006075
H       0.780111    0.209130   -0.855706
H       0.549132    0.153974    2.078174
H       3.554974   -1.484984    0.163876
H       2.263713   -0.514201    3.308812
H      -0.500833   -1.880528   -0.054072
