20

C      -0.089830    1.568740    0.057806
C      -0.047133    0.046150   -0.004939
O      -1.377740   -0.486752    0.024884
C      -1.920702   -0.734615    1.230676
N      -3.125960   -1.098085    1.323192
C       0.644966   -0.505057   -1.272906
C       0.703608   -2.044943   -1.260195
C       0.024954   -0.009601   -2.501020
C      -0.474277    0.380082   -3.522367
H       0.923262    1.982442    0.028465
H      -0.655053    1.965059   -0.788838
H      -0.567456    1.901414    0.984043
H       0.509233   -0.346956    0.858655
H      -1.215433   -0.601465    2.064358
H      -3.362162   -1.265227    2.299040
H       1.674194   -0.121125   -1.235519
H       1.241147   -2.413786   -2.136668
H       1.222020   -2.398832   -0.362799
H      -0.304681   -2.462953   -1.269217
H      -0.922623    0.724295   -4.421344
