16

N      -0.063485    1.480286    0.229674
C      -0.001243    0.061064   -0.025580
C      -1.362642   -0.719150   -0.064950
N      -0.969978   -1.230272   -1.369539
C       0.228826   -0.554066   -1.446221
O       1.082966   -0.485217   -2.287240
C      -1.580274   -1.777050    1.009189
N      -1.837049   -1.254696    2.242865
O      -1.545797   -2.967509    0.770829
H       0.873392    1.865573    0.294401
H      -0.521519    1.963035   -0.538601
H       0.693317   -0.398021    0.685160
H      -2.224035   -0.040173   -0.100298
H      -1.294765   -2.061269   -1.841108
H      -1.710476   -0.273162    2.428520
H      -1.901422   -1.887368    3.023895
