19

C       0.484591    1.432367    0.030703
C       0.607533   -0.084234   -0.093276
N       0.913814   -0.668432    1.211784
C      -0.204003   -1.113425    2.036487
C       0.741643   -2.101213    1.442964
C       0.288828   -3.075044    0.365850
C       1.435811   -3.496910   -0.531064
O       1.409689   -3.483316   -1.734123
H       1.404126    1.860198    0.439147
H       0.291303    1.883815   -0.947173
H      -0.340014    1.703575    0.698206
H      -0.316946   -0.489109   -0.536784
H       1.426180   -0.340087   -0.775769
H      -0.159898   -0.862175    3.093196
H      -1.203215   -1.071066    1.601630
H       1.513539   -2.514765    2.092922
H      -0.080821   -3.982613    0.866370
H      -0.519976   -2.685697   -0.254986
H       2.344764   -3.836975    0.019413
