19

C      -0.074691    1.380066    0.048071
O      -0.061316   -0.025893   -0.007615
C       0.667865   -0.524128   -1.106566
C       0.632659   -2.045404   -1.038400
C       1.358327   -2.718106   -2.235972
C       2.784284   -2.371358   -2.282808
C       3.947455   -2.073373   -2.313011
C       1.169172   -4.172214   -2.206542
C       0.988934   -5.358668   -2.166999
H       0.941326    1.795906    0.139784
H      -0.544376    1.820950   -0.845928
H      -0.654647    1.667261    0.928496
H       0.223914   -0.172038   -2.055606
H       1.707587   -0.160942   -1.082270
H       1.090110   -2.382270   -0.104101
H      -0.407901   -2.382411   -1.035249
H       0.892702   -2.339744   -3.158857
H       4.978175   -1.819433   -2.344926
H       0.839145   -6.409597   -2.139051
