16

O       0.066585    1.394263    0.018927
C       0.006956    0.002692   -0.041164
C       0.235852   -0.697289   -1.406980
N      -0.901946   -1.599963   -1.094853
C      -1.354481   -0.723678    0.015838
C      -1.371685   -1.439448    1.365072
O       0.003262   -1.478399    1.814380
C       0.778009   -0.616152    1.126307
O       1.903216   -0.336295    1.438250
H       0.933365    1.619619    0.384774
H       0.049920    0.021122   -2.214785
H       1.191157   -1.203562   -1.576865
H      -1.572735   -1.715255   -1.844753
H      -2.240617   -0.112653   -0.174053
H      -1.955711   -0.904514    2.121428
H      -1.723604   -2.469231    1.281896
