16

O      -0.128717    1.541014   -0.057098
C      -0.154427    0.154933    0.007937
C      -1.552398   -0.553752    0.187098
N      -1.447605   -1.157065   -1.149749
C      -0.057003   -0.657294   -1.341273
C       0.128930    0.161047   -2.528575
C       0.272328    0.903798   -3.464164
C      -1.582817   -1.526384    1.333842
O      -1.465069   -2.720309    1.198007
H      -0.441709    1.810848   -0.931261
H       0.588263   -0.146796    0.750117
H      -2.374989    0.165651    0.299266
H      -1.503021   -2.170842   -1.103447
H       0.712491   -1.436881   -1.296755
H       0.406029    1.526380   -4.314655
H      -1.700578   -1.065221    2.339262
