21

C      -0.152278    1.506903   -0.016090
C       0.042635   -0.005162    0.016988
C       1.260134   -0.595092   -0.782039
C       2.112122   -0.225274    0.466436
C       0.819011   -0.607657    1.242955
C       0.626001   -2.180799    1.141334
C       1.800731   -2.845365    0.382345
C       1.046404   -2.168823   -0.788547
O      -0.183480   -2.457722   -0.047489
H       0.754913    2.083287    0.184901
H      -0.526770    1.816317   -0.998560
H      -0.901977    1.805675    0.725475
H      -0.910338   -0.484150   -0.193576
H       1.522504   -0.196924   -1.765005
H       3.046352   -0.746935    0.666709
H       2.313731    0.845028    0.517000
H       0.647741   -0.221839    2.250631
H       0.209188   -2.634213    2.042472
H       2.839899   -2.617781    0.610129
H       1.654319   -3.925411    0.343749
H       1.043335   -2.610453   -1.786706
