21

C       0.014382    1.549613   -0.050445
C      -0.015229    0.028787   -0.022583
C       0.325646   -0.592576   -1.385538
C      -0.206839   -2.023669   -1.518883
C       0.041015   -2.806900   -0.224000
C      -0.250075   -1.924037    0.984319
C       0.603224   -0.654702    1.239386
O      -0.499384   -0.117792    2.065221
C      -1.138716   -0.649669    0.844133
H       0.988840    1.908557   -0.402356
H      -0.741889    1.938467   -0.742074
H      -0.173407    1.961298    0.941814
H      -0.080865    0.035427   -2.186829
H       1.417194   -0.573392   -1.512666
H      -1.288794   -1.978683   -1.697430
H       0.231022   -2.530324   -2.384869
H      -0.583542   -3.706593   -0.195252
H       1.081843   -3.154111   -0.172325
H      -0.451708   -2.472369    1.906667
H       1.617333   -0.572683    1.638069
H      -2.224612   -0.557808    0.774585
