18

C      -0.002130    1.533816   -0.031565
C       0.000995    0.036173    0.011262
C       0.472965   -1.041070   -0.982937
C       1.233131   -1.775062    0.119857
C       0.479606   -0.896329    1.170512
C      -0.810367   -1.590249    1.601223
O      -1.511797   -1.826143    0.371894
C      -0.984107   -0.914534   -0.570129
H       1.002970    1.945474    0.117587
H      -0.367298    1.897441   -0.997893
H      -0.652261    1.954622    0.745113
H       0.785594   -0.923559   -2.015451
H       1.095130   -2.859390    0.196491
H       2.301812   -1.548371    0.095092
H       1.067451   -0.466279    1.981375
H      -0.644373   -2.555770    2.090788
H      -1.411944   -0.953615    2.269535
H      -1.707025   -0.595650   -1.312415
