16

O       0.455532    0.749182   -0.806159
C      -0.077747    0.120239    0.340398
C      -1.419460   -0.491613    0.072657
C      -2.069799   -0.817821   -1.074326
C      -3.304441   -1.363749   -0.615298
C      -4.449080   -1.887380   -1.434133
O      -4.899832   -0.939469   -2.390717
N      -3.384974   -1.349418    0.694076
O      -2.182982   -0.794574    1.138115
H      -0.131989    1.473797   -1.045993
H       0.639914   -0.660149    0.618904
H      -0.156997    0.800133    1.202056
H      -1.725952   -0.703526   -2.087823
H      -4.124511   -2.757017   -2.014808
H      -5.248761   -2.215437   -0.757244
H      -5.232436   -0.175576   -1.907677
