22

C      -0.024807    1.472501   -0.259724
C      -0.000250   -0.020200    0.025394
O      -1.317854   -0.517712   -0.111022
C      -1.449052   -1.927902    0.039219
C      -1.483163   -2.339662    1.518280
C      -2.721336   -2.324235   -0.678410
C      -4.003639   -1.605345   -0.365930
N      -2.599119   -3.282640   -1.513653
O      -3.828981   -3.626772   -2.099070
H       0.980727    1.894246   -0.169114
H      -0.393693    1.662950   -1.271437
H      -0.681954    1.987477    0.446888
H       0.671517   -0.537338   -0.679489
H       0.390266   -0.205552    1.038443
H      -0.616726   -2.439593   -0.463248
H      -1.590375   -3.424964    1.604818
H      -0.559534   -2.049604    2.027173
H      -2.321518   -1.861893    2.033882
H      -3.795475   -0.650447    0.117524
H      -4.572883   -1.438606   -1.283177
H      -4.636261   -2.209541    0.294836
H      -3.569116   -4.314028   -2.721370
