15

N      -0.045556    1.367684    0.127612
C       0.001907   -0.001182    0.034259
N      -1.062241   -0.742486    0.019841
C      -0.648961   -2.153827   -0.003341
C       0.852491   -2.088508   -0.021179
C       1.250522   -0.770280    0.007546
C       2.661771   -0.810698    0.003396
N       3.097267   -2.069670   -0.027586
N       1.969451   -2.835750   -0.041175
H       0.723691    1.875002   -0.280159
H      -0.953947    1.764984   -0.063965
H      -1.039835   -2.681811    0.876279
H      -1.067749   -2.655516   -0.885133
H       3.383832   -0.007735    0.023699
H       2.072473   -3.836108   -0.062715
