19

C      -0.033894    1.496604    0.042776
C       0.000387    0.003640   -0.032149
C      -0.015312   -0.760908   -1.127957
C       0.012378   -2.233839   -0.805696
C       1.266505   -2.512976    0.040200
O       1.232482   -1.676725    1.199586
C       0.051722   -0.854166    1.217331
C      -1.163242   -1.797549    1.202268
O      -1.125341   -2.582273    0.010171
H       0.855919    1.884098    0.554779
H      -0.079268    1.946407   -0.952932
H      -0.901764    1.849840    0.614354
H      -0.037079   -0.388592   -2.146509
H      -0.033109   -2.880444   -1.682729
H       1.269746   -3.562944    0.359481
H       2.182244   -2.310647   -0.530876
H       0.097770   -0.275227    2.141835
H      -1.117211   -2.467570    2.070350
H      -2.103336   -1.230233    1.243037
