15

N      -0.045202    1.201952    0.368800
C      -0.017160   -0.007990    0.015656
O       1.106277   -0.688225   -0.381534
C       0.767575   -1.947315   -1.017111
C       1.657094   -3.004847   -0.560339
C       2.382889   -3.900874   -0.226635
C      -0.709934   -2.168703   -0.701722
N      -0.963066   -2.154953    0.739100
C      -1.189338   -0.921941   -0.064233
H       0.884495    1.619721    0.299498
H       0.886958   -1.810164   -2.100469
H       3.023368   -4.688520    0.085901
H      -1.309605   -2.768992   -1.375295
H      -1.865308   -2.586897    0.926663
H      -2.182767   -0.510482   -0.180313
