19

C      -0.123709    1.548294   -0.030304
C       0.045221    0.053292    0.110588
O      -1.135535   -0.657965   -0.193243
C       1.287897   -0.725225   -0.246050
C       2.574404    0.001731    0.166939
C       2.060500   -0.014581    1.658274
C       2.048921    1.263514    2.454925
O       1.074420    1.770919    2.949599
C       0.761937   -0.677894    1.207612
H       0.794043    2.104588    0.164925
H      -0.441896    1.790503   -1.052719
H      -0.887118    1.908066    0.664182
H      -1.336745   -0.503752   -1.122926
H       1.236146   -1.547972   -0.948864
H       3.475455   -0.599113    0.034032
H       2.745329    0.983806   -0.285267
H       2.683502   -0.719060    2.224438
H       3.057883    1.727415    2.575106
H       0.229975   -1.443054    1.758181
