21

C       0.006213    1.545298    0.031170
C       0.015633    0.032407    0.022515
C       1.316456   -0.690466   -0.253009
C       0.721997   -0.702140    1.141481
C       0.444937   -2.190175    1.315352
C      -0.068099   -2.788906   -0.036798
C       0.674657   -4.109124    0.268780
C       1.650202   -2.993099    0.693988
C       1.259023   -2.174188   -0.594347
H       0.943223    1.945086    0.433888
H      -0.117645    1.947438   -0.980542
H      -0.811786    1.933799    0.648068
H      -0.894589   -0.413083   -0.369235
H       2.200722   -0.112907   -0.500753
H       1.152100   -0.133497    1.959122
H      -0.001472   -2.543019    2.247196
H      -1.067589   -2.682471   -0.461980
H       0.258173   -4.732269    1.065554
H       0.964837   -4.718393   -0.592152
H       2.650735   -3.098027    1.119627
H       1.624293   -2.511094   -1.566555
