18

O       0.009743    1.419834   -0.042026
C       0.026801    0.039510   -0.013339
C      -1.121287   -0.973259    0.048030
N      -0.628240   -1.650037   -1.151096
C       0.630747   -0.840329   -1.128485
C       1.890195   -1.575788   -0.662616
C       1.596234   -2.425277    0.582317
O       0.875551   -1.741900    1.601817
C      -0.104624   -0.832020    1.183525
H       0.629252    1.747735    0.618240
H      -2.184579   -0.834451    0.214362
H      -0.491185   -2.651221   -1.043443
H       0.786329   -0.308404   -2.071341
H       2.284929   -2.233893   -1.446128
H       2.667867   -0.832850   -0.446253
H       1.050341   -3.336370    0.293836
H       2.530849   -2.752077    1.048462
H      -0.529737   -0.343221    2.056633
