17

C      -0.189470    1.578383    0.113896
C       0.056532    0.096792    0.111203
C      -1.107134   -0.923765    0.068334
C      -0.396018   -1.773993    1.166224
C       0.778677   -0.747258    1.207940
C       1.800013   -0.989794    0.126692
N       2.893108   -1.602665    0.063218
O       1.109978   -0.287994   -0.845957
H       0.740280    2.128614    0.285224
H      -0.604612    1.898064   -0.848273
H      -0.904481    1.846299    0.897860
H      -2.063645   -0.505103    0.391229
H      -1.238917   -1.396037   -0.906853
H      -0.950747   -1.807618    2.105542
H      -0.111006   -2.791467    0.893909
H       1.126327   -0.376873    2.170248
H       3.292379   -1.548755   -0.875796
