14

C      -0.020455    1.490193   -0.001514
C       0.010870   -0.010614   -0.008482
N      -0.047447   -0.626447   -1.193193
C      -0.016554   -1.965069   -1.174171
C       0.071261   -2.700159    0.004305
C       0.125822   -1.953263    1.177215
N       0.096780   -0.624215    1.184602
C      -0.078937   -2.640204   -2.446511
N      -0.127127   -3.213656   -3.449232
H       0.892831    1.881374    0.457784
H      -0.112829    1.874606   -1.016883
H      -0.858324    1.844775    0.606432
H       0.094972   -3.781955    0.002744
H       0.195267   -2.445028    2.144759
