15

N      -0.097459    1.283658    0.023736
C      -0.000825    0.022637   -0.035025
N       1.118950   -0.824310   -0.120914
C       0.620112   -2.215115   -0.022239
C      -0.654593   -2.102002   -0.876423
C      -1.172918   -0.951008    0.000133
O      -1.126713   -1.546240    1.336932
C      -0.019213   -2.354750    1.370702
O       0.328700   -2.966920    2.334925
H       0.820360    1.734426    0.020272
H       1.942190   -0.578223    0.412179
H       1.370886   -2.961981   -0.264637
H      -0.450563   -1.815991   -1.909233
H      -1.294553   -2.984821   -0.831033
H      -2.157496   -0.526428   -0.164221
