15

N      -0.054591    1.379239    0.136716
C       0.006367    0.007134    0.035974
N      -1.046223   -0.744648    0.017586
C      -0.631766   -2.158840   -0.008567
C       0.871453   -2.106830   -0.024487
N       1.897236   -2.939114   -0.047153
N       2.964776   -2.095588   -0.028190
C       2.634777   -0.773402    0.007722
C       1.257207   -0.752106    0.009397
H       0.692742    1.889903   -0.307752
H      -0.972560    1.756640   -0.053452
H      -1.028025   -2.686399    0.867997
H      -1.053638   -2.655259   -0.890985
H       3.890553   -2.490525   -0.039778
H       3.395193   -0.009139    0.033358
