16

C       0.004559    1.620054   -0.245136
N      -0.132824    0.202938    0.009295
C       0.523306   -0.582996   -0.726819
N       0.500556   -1.970569   -0.611338
C      -0.188830   -2.760966    0.265901
O      -0.944331   -2.425583    1.151156
C       0.126888   -4.251611   -0.018530
N      -0.532838   -5.063220    0.824285
O       0.888121   -4.589404   -0.910567
H       0.686574    1.862706   -1.077111
H      -0.980330    2.046667   -0.466415
H       0.368800    2.118250    0.660455
H       1.186821   -0.258815   -1.542138
H       1.065135   -2.515437   -1.254090
H      -1.131764   -4.639893    1.516400
H      -0.426664   -6.060997    0.760314
