18

O       0.019342   -0.051517    0.322120
C      -0.008367    1.129366    0.073009
C      -1.296176    1.919554   -0.079398
C      -1.117437    3.156844   -0.944236
C      -0.090440    3.193618   -2.108517
C      -0.115743    4.715340   -1.879645
N      -0.077465    4.185482   -0.435406
C       0.981267    3.197568   -0.984648
C       1.241011    1.968783   -0.128254
H      -2.075137    1.258832   -0.471931
H      -1.622090    2.235089    0.921882
H      -2.081453    3.634073   -1.146539
H      -0.097768    2.635422   -3.051722
H       0.771410    5.292755   -2.152398
H      -1.034647    5.257476   -2.117469
H       1.917555    3.711658   -1.223544
H       1.592736    2.297465    0.859979
H       2.029323    1.338470   -0.550967
