21

C      -0.072087    1.552800    0.060346
C       0.052341    0.033141   -0.000773
C       0.836698   -0.455105   -1.205063
O       1.365479    0.304843   -1.987260
C       0.900935   -1.967609   -1.435100
O       0.654045   -2.604155   -0.202730
C      -0.000732   -2.360657   -2.658861
C       1.268296   -2.361196   -3.550487
C       2.142741   -2.399932   -2.269923
H       0.913184    2.024916    0.087697
H      -0.591656    1.941677   -0.819672
H      -0.627568    1.857195    0.951902
H       0.544050   -0.372318    0.892160
H      -0.928494   -0.459486   -0.011655
H       0.617650   -3.553130   -0.357836
H      -0.406910   -3.366837   -2.507433
H      -0.822161   -1.689990   -2.922698
H       1.373775   -3.189566   -4.253445
H       1.388246   -1.417654   -4.083299
H       3.008835   -1.738229   -2.229569
H       2.445190   -3.416244   -1.997572
