12

O      -0.069883   -0.067893    0.004938
C      -0.021563    1.150934    0.009460
C      -1.248231    1.982650    0.031069
N      -1.318232    3.265254    0.038057
O      -0.120685    3.968386    0.024315
C       1.068924    3.311167    0.004415
C       1.178517    1.960083   -0.003494
C       2.169806    4.206309   -0.006881
C       3.107513    4.958934   -0.016536
H      -2.211007    1.478269    0.042447
H       2.153590    1.491923   -0.019391
H       3.937551    5.622902   -0.025084
