17

C       0.053785    1.329478   -0.232424
O      -0.272300    0.007418    0.178858
C       0.598751   -0.567273    1.029955
N       0.382938   -1.742461    1.444600
C       1.250323   -2.369319    2.318137
C       2.441076   -2.043173    2.953880
C       2.823199   -3.161244    3.738454
C       1.866649   -4.139471    3.567794
N       0.923935   -3.647328    2.708236
H       1.012342    1.358991   -0.764745
H      -0.740757    1.645009   -0.909355
H       0.092765    2.017002    0.621309
H       1.457464    0.059192    1.302713
H       2.976068   -1.110095    2.866061
H       3.702052   -3.240996    4.359838
H       1.782816   -5.130546    3.982687
H       0.096609   -4.116956    2.381901
