17

C       0.249561    1.265574    0.236728
C      -0.184472   -0.194107   -0.015282
C      -1.638473   -0.338733   -0.031594
C      -2.834561   -0.451338   -0.072723
C       0.392931   -0.683311   -1.335735
O       1.778880   -0.960655   -1.363407
C       0.896860   -2.065946   -1.557368
C       0.830792   -3.107026   -0.483504
O       1.208028   -2.953825    0.650363
H       1.340781    1.327657    0.249362
H      -0.133123    1.928647   -0.545026
H      -0.134940    1.615040    1.197587
H       0.234231   -0.821571    0.778329
H      -3.891341   -0.555541   -0.090077
H       0.012685   -0.165529   -2.218770
H       0.862987   -2.459143   -2.574250
H       0.378061   -4.064841   -0.822814
