19

C       0.084604    1.589888   -0.143917
C       0.014251    0.086526   -0.093127
C       0.450616   -0.837320   -1.246794
C      -0.282384   -1.905742   -0.415767
O       0.584751   -2.032476    0.734690
C       0.388245   -0.707652    1.241240
C      -1.121499   -0.768041    1.618222
O      -1.690663    0.412569    2.144770
C      -1.287728   -0.800457    0.095949
H       1.128228    1.927147   -0.170406
H      -0.408301    1.975154   -1.043486
H      -0.402175    2.036124    0.725732
H      -0.082424   -0.575958   -2.166141
H       1.511985   -1.008429   -1.447004
H      -0.578463   -2.884663   -0.788151
H       1.181034   -0.414839    1.930591
H      -1.411819   -1.658614    2.191222
H      -1.399603    0.496278    3.058655
H      -2.230685   -0.638449   -0.422923
