15

C      -0.068139    1.493750   -0.004900
C       1.423861    1.888381   -0.019023
O       2.177677    1.470742    1.116330
C       2.276581    0.676324   -0.091044
C       1.338665   -0.474506   -0.100831
C       0.069816    0.004238   -0.037071
O      -0.835661   -0.988119    0.069298
C      -0.106091   -2.152568    0.048259
C       1.230291   -1.900500   -0.048804
H      -0.570210    1.866639    0.894722
H      -0.593373    1.906366   -0.874930
H       1.714545    2.844607   -0.445870
H       3.257753    0.662004   -0.554022
H      -0.685949   -3.058819    0.101229
H       2.012986   -2.642282   -0.077221
