20

C       0.143927    1.580959    0.087554
C       0.004667    0.064893    0.007999
C       0.642831   -0.509946   -1.264761
C       0.836768   -2.032498   -1.231348
N      -0.423996   -2.738153   -1.015521
C      -0.758327   -3.019609    0.165880
O      -0.032401   -2.774961    1.310567
C      -0.102650   -1.458251    1.864528
O       0.620735   -0.494502    1.180898
H       1.199528    1.859298    0.164382
H      -0.273852    2.054936   -0.806056
H      -0.377910    1.973146    0.964778
H      -1.061626   -0.200731    0.019900
H       0.015306   -0.226889   -2.118203
H       1.626292   -0.049633   -1.418511
H       1.235459   -2.356458   -2.197539
H       1.568746   -2.275029   -0.452956
H      -1.685325   -3.563743    0.356903
H      -1.161734   -1.167829    1.950218
H       0.349790   -1.553930    2.853039
