19

O       0.259798    1.292965    0.010322
C       0.104350   -0.106331   -0.034670
C       0.058114   -0.662246   -1.466917
O      -1.153191   -1.394030   -1.172602
C      -1.342887   -0.656001    0.059302
C      -1.701404   -1.523618    1.274768
C      -0.857655   -1.144596    2.470491
C       0.429571   -0.822066    2.324487
C       1.047975   -0.822501    0.945467
H       0.209838    1.563213    0.934562
H      -0.102063    0.125222   -2.213875
H       0.871479   -1.322014   -1.787973
H      -2.072485    0.152704   -0.080251
H      -2.767423   -1.457403    1.509465
H      -1.506166   -2.567932    0.994862
H      -1.320552   -1.158507    3.452836
H       1.045077   -0.573251    3.183622
H       1.196537   -1.857195    0.607031
H       2.027088   -0.335300    0.927090
