15

N       0.118659    1.379814    0.119652
C      -0.007786   -0.003745    0.033410
C      -1.136789   -0.805667    0.055111
C      -0.696120   -2.155785    0.062674
N      -1.501953   -3.280988    0.129645
C       0.695953   -2.143852    0.030135
N       1.095438   -0.795154   -0.003781
C       1.592688   -3.214474   -0.025411
N       2.319291   -4.122829   -0.069883
H       0.771827    1.773523   -0.547134
H      -0.772112    1.851182    0.044505
H      -2.159481   -0.461487    0.051655
H      -2.394844   -3.188093   -0.332190
H      -1.038611   -4.140909   -0.130591
H       2.029274   -0.482083    0.198963
