18

C      -0.100394    1.410440    0.002473
C       0.036292   -0.096956    0.062154
C       1.396133   -0.674775   -0.222120
C       0.824948   -0.672694    1.203330
C       0.819838   -2.225764    1.222317
C       1.398052   -2.229241   -0.215538
N       0.198473   -2.956937   -0.639111
C      -0.417394   -2.936497    0.606314
O      -1.493093   -3.317538    0.978574
H       0.802017    1.907455    0.373927
H      -0.269156    1.750152   -1.024859
H      -0.944002    1.750773    0.611751
H      -0.842107   -0.634552   -0.288048
H       2.195169   -0.071261   -0.636450
H       1.117098   -0.067136    2.052178
H       1.330169   -2.708366    2.052700
H       2.345707   -2.708625   -0.460525
H      -0.217547   -3.086278   -1.551238
