20

C      -0.179576    1.593176   -0.153956
C      -0.009114    0.101976    0.050365
N       1.163205   -0.561910   -0.708788
C       2.122748   -0.153763    0.439928
C       2.580970   -1.556385    0.852231
C       2.461899   -1.583251    2.407039
C       1.131093   -0.766506    2.679553
C       0.821040   -0.470214    1.221676
C       1.146039   -1.700014    0.337816
H       0.742703    2.143914    0.053115
H      -0.473454    1.800779   -1.187844
H      -0.962152    1.985208    0.504507
H      -0.948951   -0.428010   -0.150901
H       2.683826    0.780960    0.413322
H       3.434724   -2.065294    0.401518
H       2.392941   -2.607189    2.786861
H       3.328524   -1.115691    2.884371
H       0.370047   -1.372353    3.179340
H       1.310505    0.125606    3.286138
H       0.526634   -2.587512    0.192472
