17

C      -0.010817    1.520566   -0.030050
C      -0.068536    0.026382    0.014906
O       0.878516   -0.615892   -0.825296
C       0.454825   -1.968785   -0.845538
C       0.885539   -2.639427    0.453888
O       0.344606   -1.928796    1.571082
C      -0.435867   -0.822156    1.219562
C      -1.293519   -0.871567   -0.031788
O      -0.965624   -1.940991   -0.894166
H       0.954397    1.885940    0.335377
H      -0.151638    1.880525   -1.054363
H      -0.796486    1.950203    0.597802
H       0.843123   -2.463967   -1.737525
H       0.522714   -3.674809    0.477308
H       1.980502   -2.642975    0.527959
H      -0.825210   -0.329451    2.104217
H      -2.328862   -0.561630   -0.098675
