16

N       0.045949   -1.173372    0.045232
C       0.031311   -0.018258    0.032370
C      -0.039034    1.443293    0.001986
C      -0.703355    2.050538    1.231136
C       0.017877    3.034113    1.764738
C       1.324080    3.251577    1.056155
C       2.534327    2.496470    1.662703
O       2.358883    1.408489    0.726745
C       1.358373    2.125906   -0.009637
H      -0.596353    1.716423   -0.905587
H      -1.663185    1.697131    1.587418
H      -0.277607    3.612861    2.632918
H       1.504007    4.282526    0.745272
H       3.500891    2.995768    1.522285
H       2.437571    2.165158    2.701696
H       1.694724    2.368647   -1.022456
