19

C      -0.038970    1.437295   -0.039207
C      -0.053816   -0.068750    0.026948
C      -0.908243   -0.814389    1.022387
C       0.595641   -0.833030    1.148888
O       1.248102   -2.018037    0.775015
C       2.058393   -1.847776   -0.357052
C       1.644966   -2.589864   -1.600615
C       1.398328   -1.107774   -1.487419
O       0.079822   -0.707823   -1.226645
H       0.899795    1.802102   -0.470396
H      -0.863767    1.802010   -0.660090
H      -0.145189    1.872684    0.959026
H      -1.480726   -0.244841    1.746691
H      -1.368944   -1.730978    0.673102
H       1.072998   -0.293529    1.965472
H       3.114281   -1.696530   -0.141929
H       2.417743   -2.935096   -2.278549
H       0.774529   -3.229117   -1.510104
H       1.973019   -0.418442   -2.102481
