17

O      -0.569640    0.747157   -0.615097
C       0.155555    1.040336    0.301067
C       1.348294    1.970001    0.202732
C       1.404082    2.891550   -1.056268
C       1.430932    4.233098   -0.298529
C       2.411642    3.901934    0.854772
N       1.340123    2.941451    1.344536
C       0.364555    3.974565    0.792491
H      -0.001177    0.629869    1.322855
H       2.239241    1.336118    0.305099
H       2.298210    2.727498   -1.662780
H       0.523852    2.763185   -1.690115
H       1.477457    5.151424   -0.885879
H       3.375537    3.439285    0.621283
H       2.543529    4.708653    1.579182
H       0.249103    4.788016    1.511309
H      -0.615519    3.586357    0.499792
