14

C      -0.014188    1.540358   -0.114401
C      -0.016484    0.044739    0.134340
O      -0.054822   -0.459472    1.235684
N       0.029897   -0.713200   -1.024938
C       0.038021   -2.094364   -1.069854
N       0.083436   -2.725644   -2.215670
O       0.077627   -4.058003   -1.891339
N       0.028502   -4.242178   -0.542842
C       0.003272   -3.052481   -0.011683
H       0.889600    1.844271   -0.652764
H      -0.878672    1.836129   -0.717905
H      -0.051919    2.052749    0.845667
H       0.060873   -0.247964   -1.919873
H      -0.036840   -2.886903    1.049814
