21

C       0.033380    1.574234   -0.014682
C       0.071699    0.054560    0.058463
O       0.814350   -0.455175   -1.063760
C       1.211085   -1.802311   -0.749790
C       2.357243   -2.212788   -1.663049
C       1.514768   -1.766748    0.742955
C       2.274591   -0.561651    1.239098
O       3.047152    0.268571    0.420187
C       0.766483   -0.547081    1.273817
H       1.034686    1.996582    0.098523
H      -0.387145    1.900635   -0.970181
H      -0.596674    1.968186    0.788675
H      -0.957519   -0.338755    0.008951
H       0.351686   -2.472359   -0.919818
H       3.246596   -1.608013   -1.470404
H       2.612984   -3.262315   -1.488003
H       2.068852   -2.101634   -2.712254
H       1.561627   -2.707470    1.280689
H       2.766056   -0.678199    2.199681
H       2.576976    0.346343   -0.421638
H       0.237049   -0.548491    2.220395
