20

C       0.202955    1.527706   -0.035370
C       0.032874    0.004952   -0.016231
N       0.530424   -0.546960   -1.273217
C       1.207167   -1.616722   -1.304911
C       1.670065   -2.226707   -2.595769
O       1.624768   -2.382770   -0.252937
C       1.406274   -1.893248    1.049149
C       2.113004   -0.637894    1.477821
C       0.614958   -0.638187    1.235213
H       1.263167    1.798661   -0.051307
H      -0.268256    1.944706   -0.929122
H      -0.252690    1.981251    0.851068
H      -1.046860   -0.204890   -0.003515
H       1.326011   -1.617925   -3.430626
H       2.762256   -2.298860   -2.612939
H       1.278355   -3.244360   -2.694101
H       1.307723   -2.723945    1.737843
H       2.478256   -0.571374    2.496493
H       2.744320   -0.156169    0.737956
H      -0.019886   -0.585386    2.114852
