22

C      -0.149482    1.590578   -0.034663
C       0.026401    0.078454   -0.011289
C       0.989031   -0.653555   -0.966816
C       2.448763   -0.159177   -0.959233
C       2.647335   -0.977551    0.331548
C       2.117752   -0.330141    1.626130
C       2.534876    1.066132    2.067099
C       0.695007   -0.708761    1.143563
N       1.302343   -1.691762    0.122561
H       0.803335    2.124983   -0.042779
H      -0.705527    1.897577   -0.927535
H      -0.715137    1.934274    0.838325
H      -0.958716   -0.385171   -0.146187
H       0.585136   -1.004252   -1.919722
H       3.017454   -0.582135   -1.791119
H       2.636580    0.918502   -0.930201
H       3.553352   -1.584179    0.404236
H       2.344071   -1.030457    2.439723
H       2.468574    1.799624    1.260180
H       1.907204    1.422169    2.891396
H       3.571457    1.061799    2.422247
H       0.019665   -1.102900    1.907784
