13

N      -0.150761   -1.102459   -0.548139
C      -0.079920    0.001698   -0.216048
C       0.010350    1.407902    0.190781
C       1.402113    1.968363    0.074740
C       2.130602    2.537719    1.071450
O       3.333072    2.958549    0.605513
C       3.375166    2.646796   -0.717076
C       2.224249    2.040801   -1.101857
H      -0.692811    1.979646   -0.428148
H      -0.345793    1.492455    1.222886
H       1.940413    2.711307    2.118066
H       4.281571    2.917308   -1.232553
H       1.983109    1.676975   -2.088430
