20

C      -0.047546    1.539825   -0.008516
N       1.208312    0.747144    0.054120
C      -0.074618    0.069228    0.007308
C      -0.505451   -0.985923    1.019106
C      -2.006370   -0.863278    1.316894
C      -2.802544   -1.199989    0.028604
C      -2.042066   -0.833051   -1.273168
C      -0.532865   -0.964120   -1.016347
O      -0.312373   -2.005022   -0.016502
H      -0.268783    2.110294    0.889980
H      -0.297557    2.049232   -0.936841
H       1.655372    0.728099   -0.860425
H       0.129257   -1.152925    1.892322
H      -2.300909   -1.546647    2.119686
H      -2.216139    0.153042    1.671384
H      -2.969894   -2.279168    0.017463
H      -3.789221   -0.728536    0.046921
H      -2.357303   -1.499614   -2.082626
H      -2.261954    0.190317   -1.599998
H       0.068194   -1.117134   -1.918899
