15

C      -0.009029    1.559609   -0.113565
N       1.517791    1.592800    0.135253
C       1.273412    0.305558    0.945678
C       1.269198   -1.289480    0.934703
O      -0.220615   -1.135277    1.047777
C       0.084833    0.026816    0.112272
C       0.630012   -0.743074   -1.104248
C       1.441218   -1.636540   -0.537997
H      -0.510802    2.118086    0.677607
H      -0.325237    1.916056   -1.098513
H       1.958938    1.347710   -0.753079
H       1.029091    0.633448    1.956909
H       1.693699   -1.911554    1.722423
H       0.366486   -0.569449   -2.138133
H       2.052495   -2.421435   -0.957847
