15

C      -0.034892    1.479817   -0.001354
C       0.006266   -0.010935   -0.047123
N       0.011436   -0.729187   -1.139708
C       0.056492   -2.027706   -0.665529
N       0.133314   -3.083294   -1.531316
N       0.071390   -2.156039    0.644152
N       0.045644   -0.838842    1.054474
C       0.050321   -0.469892    2.400369
O       0.079384   -1.234366    3.322950
H       0.849271    1.894933    0.492686
H      -0.065608    1.848996   -1.026801
H      -0.918958    1.846742    0.529556
H      -0.239626   -2.902649   -2.449905
H      -0.112683   -3.979825   -1.141005
H       0.022606    0.628921    2.504805
