13

O       0.044418   -0.002455   -0.108632
C       0.001622    1.200185   -0.039293
N      -1.096322    2.020223   -0.251586
C      -0.830598    3.384456    0.161020
C       0.719121    3.437953    0.030908
N       1.067989    2.050597    0.287125
C       1.152181    3.909392   -1.300287
N       1.520028    4.282841   -2.329980
H      -2.009840    1.608810   -0.148772
H      -1.319238    4.119070   -0.481923
H      -1.111687    3.578499    1.204953
H       1.149967    4.109121    0.779574
H       1.994802    1.714400    0.073108
