23

C      -0.562727    0.928346    0.168593
O      -0.142147   -0.387250    0.448485
C       0.994006   -0.556956    1.318209
C       2.195884    0.249612    0.816212
C       0.624710   -0.236046    2.797393
C       0.112896   -1.532596    3.404791
C      -0.945404   -2.302338    2.651144
C       0.509609   -2.671333    2.491444
C       1.266599   -2.086075    1.309966
H       0.158855    1.478253   -0.451101
H      -1.498476    0.841480   -0.390245
H      -0.758545    1.519555    1.074688
H       2.034861    1.328068    0.906616
H       3.085116    0.001213    1.402322
H       2.400655    0.019616   -0.234419
H       1.523515    0.089309    3.335002
H      -0.093826    0.587650    2.860253
H       0.153542   -1.638548    4.483554
H      -1.562020   -2.980452    3.231998
H      -1.448888   -1.820743    1.821923
H       0.848022   -3.619847    2.893989
H       0.971046   -2.501880    0.342229
H       2.339398   -2.269605    1.437625
