21

C      -0.347226    1.535092    0.683764
C      -0.188826    0.022360    0.536608
C       0.150996   -0.509831   -0.892472
C       1.214073   -1.569128   -0.539638
O       2.456937   -0.903839   -0.312679
C       2.357066   -0.409429    1.041712
C       2.899408    1.007040    1.138149
C       0.880336   -0.734998    1.368395
O       0.815119   -2.034859    0.737990
H       0.482787    2.095739    0.250384
H      -1.259510    1.863764    0.175056
H      -0.438902    1.827453    1.735829
H      -1.134512   -0.435055    0.846803
H      -0.718172   -0.949614   -1.388716
H       0.575669    0.256723   -1.545036
H       1.358046   -2.398561   -1.232023
H       2.964990   -1.058382    1.689284
H       2.454218    1.668476    0.394782
H       2.724315    1.424103    2.135502
H       3.979493    0.995082    0.965066
H       0.664098   -0.824218    2.433396
