23

C       0.025907    1.507419    0.214203
C      -0.071739    0.016406   -0.117784
C      -1.466984   -0.540825    0.126765
O      -1.464196   -1.918172   -0.208144
C      -2.716849   -2.565926   -0.058894
C      -2.598633   -3.952791   -0.709320
C      -2.298633   -3.877190   -2.207304
C      -3.121611   -2.667262    1.351404
C      -3.449126   -2.762324    2.504362
H       1.036614    1.884527    0.033759
H      -0.663285    2.099594   -0.398080
H      -0.217328    1.698974    1.265118
H       0.197237   -0.158551   -1.165952
H       0.640986   -0.555436    0.487297
H      -1.757808   -0.404760    1.179611
H      -2.209976   -0.004785   -0.489173
H      -3.490324   -1.987868   -0.596206
H      -1.807630   -4.500333   -0.185759
H      -3.534316   -4.492125   -0.528226
H      -2.195114   -4.879531   -2.633143
H      -3.104431   -3.367158   -2.747406
H      -1.371697   -3.328166   -2.387503
H      -3.740901   -2.843065    3.522408
