17

C       0.092172   -1.121512   -0.019135
C       0.033563    0.080677   -0.020704
C      -0.046875    1.506619   -0.031134
C      -1.113968    2.243699   -0.831217
C      -0.732078    3.666093   -0.483500
C      -0.162944    3.745635    0.920772
C       0.766195    3.789441   -0.278092
C       1.234599    2.349519    0.039128
C       0.312456    2.306164    1.229516
H       0.144361   -2.181675   -0.017218
H      -1.034018    2.033432   -1.902846
H      -2.123394    1.982223   -0.497027
H      -1.279618    4.514315   -0.876921
H      -0.405427    4.513783    1.641641
H       1.375893    4.597767   -0.656744
H       2.221079    1.928603   -0.092996
H       0.446645    1.845179    2.197635
