18

C      -0.659217    1.544475   -0.188048
C       0.277155    0.377458    0.174554
C       0.992271   -0.166108   -0.974663
C       1.566738   -0.603327   -1.939880
C       2.271977   -1.128571   -3.094254
C       3.694877   -1.715931   -2.875524
C       3.103150   -3.001523   -3.481748
O       1.783217   -2.421882   -3.547688
H      -0.096286    2.372140   -0.627974
H      -1.412475    1.225965   -0.913473
H      -1.172926    1.912747    0.704974
H       1.002486    0.707970    0.929384
H      -0.301983   -0.425739    0.648126
H       2.230283   -0.401531   -3.917303
H       4.494056   -1.231934   -3.437916
H       3.977797   -1.792885   -1.825847
H       3.482386   -3.264965   -4.477390
H       3.125613   -3.894283   -2.846444
