20

C       0.164115    1.511692   -0.159423
C       0.015875   -0.002307   -0.039273
C      -1.453309   -0.421262   -0.120014
C       0.938718   -0.872560   -0.949682
N       1.461724   -1.653355    0.220010
C       2.797529   -1.167515    0.685023
C       2.103197   -0.145615    1.608562
O       2.464894    0.703690    2.367235
C       0.740694   -0.698969    1.156932
H       1.208611    1.830147   -0.100076
H      -0.240156    1.858607   -1.117285
H      -0.383342    2.025491    0.638256
H      -1.886749   -0.119419   -1.080433
H      -1.564061   -1.506066   -0.026086
H      -2.040190    0.050706    0.675723
H       0.418125   -1.505630   -1.674454
H       1.714785   -0.306166   -1.479076
H       3.350305   -1.936791    1.236534
H       3.452760   -0.757613   -0.091810
H       0.112357   -1.114177    1.951739
