14

C      -0.112481    1.578985    0.008303
C       0.050611    0.056323    0.004964
C       0.866455   -0.485115   -1.172145
O       0.702009   -0.227397   -2.340107
C       1.924143   -1.380220   -0.614931
C       1.881772   -1.387706    0.725852
C       0.790724   -0.498466    1.225121
O       0.552727   -0.253771    2.383170
H       0.860563    2.078711    0.041755
H      -0.629708    1.901644   -0.898056
H      -0.685875    1.891715    0.883825
H      -0.941956   -0.413442   -0.029003
H       2.614554   -1.915427   -1.255804
H       2.530530   -1.930268    1.403030
