15

O       0.207210    1.466438   -0.689763
C       0.270911    0.061241   -0.599420
C      -0.947323   -0.515195    0.161142
C      -2.194008   -0.167140   -0.512665
C      -3.182663    0.143438   -1.122811
C      -0.820825   -2.038589    0.351028
O       0.139370   -2.655683   -0.048830
C      -1.905266   -2.677716    1.069390
C      -2.795483   -3.197535    1.690253
H      -0.594241    1.689156   -1.177871
H       0.337656   -0.420361   -1.583732
H       1.181672   -0.182144   -0.048380
H      -0.962144   -0.073179    1.168473
H      -4.072926    0.404684   -1.640267
H      -3.580126   -3.666798    2.233029
