21

C      -0.008630    1.579293    0.133915
C      -0.025780    0.081219    0.067285
C       1.160922   -0.742011   -0.403331
C       0.622601   -0.992046    0.962124
O       1.433686   -0.909441    2.071944
C      -0.657897   -1.831124    0.947768
C      -0.592643   -3.300094    0.559392
O      -1.199234   -1.675765    2.261647
C      -1.284388   -0.794471   -0.051972
H       0.967094    1.941730    0.474114
H      -0.207112    2.032178   -0.845524
H      -0.766529    1.954280    0.831470
H       1.070245   -1.469439   -1.209029
H       2.106333   -0.207141   -0.395031
H       0.836589   -0.909133    2.831973
H      -0.006354   -3.861305    1.293288
H      -1.598280   -3.737807    0.513620
H      -0.134705   -3.431162   -0.424993
H      -2.021097   -2.173759    2.314604
H      -2.175063   -0.334676    0.383882
H      -1.520098   -1.165371   -1.056572
