18

O      -0.052402    1.361280    0.125324
C       0.013170   -0.033323   -0.032466
C      -0.572006   -0.597407   -1.297155
C      -1.321530   -0.720452    0.037455
C      -1.380328   -2.039414    0.713293
C      -0.285121   -2.733059    1.029466
C       1.106080   -2.223917    0.743094
C       1.175501   -0.685353    0.693387
H       0.668853    1.747943   -0.384100
H      -0.959024    0.121438   -2.010903
H      -0.168505   -1.507344   -1.728446
H      -2.181451   -0.069209    0.148271
H      -2.365526   -2.444886    0.926982
H      -0.375588   -3.712523    1.490548
H       1.805007   -2.586663    1.505238
H       1.467272   -2.649850   -0.204085
H       2.126655   -0.368843    0.245781
H       1.161554   -0.289928    1.716055
