18

O       0.261034    1.184283   -0.513573
C       0.079552   -0.145708   -0.031171
C       0.573492   -0.335249    1.382438
C      -0.359405   -0.834934    2.190749
C      -1.658415   -1.115408    1.479077
C      -1.392227   -0.618616    0.050441
C      -2.451072    0.123952   -0.727377
C      -2.048592   -1.267414   -1.139953
H      -0.180022    1.772161    0.110664
H       0.650361   -0.754086   -0.743795
H       1.585035   -0.065703    1.664849
H      -0.223318   -1.046173    3.246335
H      -1.895635   -2.187897    1.502093
H      -2.505249   -0.606457    1.958966
H      -3.421090    0.260582   -0.259818
H      -2.120892    0.950696   -1.346126
H      -1.459357   -1.377443   -2.045445
H      -2.744528   -2.080784   -0.958845
