20

C      -0.100505    1.481011   -0.135112
C       0.024840   -0.016953    0.027700
C       1.382269   -0.691418   -0.074341
C       0.659711   -0.619261    1.252902
O       1.132586    0.312651    2.198291
C       0.074273   -1.875674    1.868537
C       1.104992   -2.715982    2.628249
O       0.554372   -3.903489    3.174341
H       0.720878    1.995307    0.368027
H      -0.091071    1.761044   -1.194003
H      -1.036278    1.847986    0.300382
H      -0.806549   -0.587339   -0.379811
H       1.461599   -1.647898   -0.580704
H       2.241467   -0.039539   -0.198667
H       2.021094    0.050797    2.459219
H      -0.730663   -1.584120    2.558022
H      -0.377195   -2.497849    1.088008
H       1.896439   -3.044034    1.945207
H       1.581224   -2.104020    3.411215
H      -0.123724   -3.647080    3.807694
