17

C       0.145956    1.380882   -0.426007
C       0.024798    0.000994    0.242779
O       0.430037    0.068853    1.588566
C      -1.393746   -0.537520    0.131350
N      -2.100971   -0.582749    1.260540
C      -3.355904   -1.032279    1.183445
C      -3.907324   -1.442145   -0.024169
N      -3.207950   -1.410703   -1.163428
C      -1.959805   -0.959079   -1.077675
H       1.168431    1.747905   -0.306268
H      -0.086078    1.334251   -1.495062
H      -0.535442    2.092424    0.050343
H       0.692962   -0.697622   -0.284199
H      -0.378902   -0.038467    2.113283
H      -3.927701   -1.068576    2.106647
H      -4.928439   -1.808639   -0.078302
H      -1.380703   -0.935711   -1.997992
