20

C       0.094850   -0.802524    1.116016
N       0.320976   -1.934765    0.209930
C       0.849750   -1.570090   -1.076561
C       2.085818   -0.811029   -1.080045
N       3.078475   -0.215924   -1.044105
C       0.630903   -2.544458   -2.245604
C       0.029322   -3.911649   -2.017251
C      -0.176314   -1.266735   -2.167810
N      -1.556367   -1.193718   -1.773509
H       1.002442   -0.217060    1.324490
H      -0.649935   -0.136701    0.671909
H      -0.301331   -1.182125    2.061619
H       0.922565   -2.622935    0.650296
H       1.437065   -2.524843   -2.973823
H      -0.762574   -3.889463   -1.267426
H      -0.393849   -4.296144   -2.951632
H       0.788594   -4.625974   -1.682051
H       0.107463   -0.483887   -2.864980
H      -2.158606   -1.514093   -2.525683
H      -1.713738   -1.794927   -0.970986
