18

C      -0.041950    1.387871   -0.018442
O      -0.035550   -0.036653   -0.063754
C       0.673335   -0.552340   -1.130260
C       0.067847   -0.473601   -2.573634
C       0.283936   -2.012733   -2.738883
C       0.899142   -2.076223   -1.328468
O       2.346576   -1.848158   -1.360615
C       2.196069   -0.494675   -1.121100
N       3.051895    0.405016   -0.945677
H       0.975837    1.785603    0.054287
H      -0.531324    1.813409   -0.905879
H      -0.613390    1.666335    0.868936
H      -0.988609   -0.200588   -2.530819
H       0.581468    0.180368   -3.279753
H      -0.649003   -2.573083   -2.830137
H       0.967455   -2.327344   -3.529003
H       0.630049   -2.852283   -0.614198
H       4.002911    0.033418   -0.990150
