18

N      -0.043989    1.349477    0.044650
C       0.053516   -0.018870   -0.022585
O       1.134323   -0.575573   -0.098488
C      -1.248753   -0.762021   -0.027666
C      -1.219414   -2.097575    0.003015
C      -2.468017   -2.926480    0.050634
C      -3.665813   -2.048580    0.417968
O      -3.671036   -0.859444   -0.354911
C      -2.568982   -0.022170   -0.076707
H       0.821477    1.849886    0.171709
H      -0.889155    1.809438    0.336932
H      -0.250433   -2.587989   -0.000679
H      -2.632392   -3.407137   -0.923798
H      -2.357333   -3.741269    0.777356
H      -4.614295   -2.550897    0.211112
H      -3.635741   -1.805535    1.492981
H      -2.735920    0.521776    0.874307
H      -2.556109    0.726362   -0.877666
