17

O       0.111591    1.432140   -0.165596
C       0.078221    0.017243   -0.017762
C       0.764081   -0.460312    1.262157
O      -0.091390   -0.304916    2.393317
C      -1.394020   -0.753478    2.143644
C      -1.708410   -1.694942    0.933583
O      -3.100310   -1.222258    1.000238
C      -2.287815    0.001598    1.118583
C      -1.360583   -0.510707   -0.018244
H      -0.228573    1.816494    0.650462
H       0.627590   -0.373889   -0.880699
H       1.046753   -1.519019    1.154986
H       1.665078    0.124280    1.462027
H      -1.880171   -1.011773    3.084707
H      -1.549894   -2.766077    0.805857
H      -2.814504    0.952160    1.208540
H      -1.837860   -0.550423   -0.998554
