12

C       0.070789    1.455849   -0.003952
C       0.029121   -0.032158   -0.027362
N      -0.004028   -0.689292   -1.137076
C      -0.039969   -2.052271   -1.022695
F      -0.073142   -2.686220   -2.172435
N      -0.046375   -2.796834    0.022921
O      -0.010866   -2.097652    1.229481
C       0.027483   -0.729964    1.288031
O       0.057726   -0.179785    2.354585
H       0.963810    1.794280    0.532775
H       0.065340    1.851146   -1.019324
H      -0.783713    1.842976    0.561659
