19

C      -0.082291    1.560380   -0.209374
C       0.030993    0.048954   -0.080780
C       1.129819   -0.653460   -0.899713
O       2.392243   -0.191100   -0.401389
C       1.722412   -1.243045    0.308819
C       0.688030   -0.569123    1.211671
C       1.127707    0.220528    2.455841
O       0.408806   -0.678008    3.330886
C      -0.135701   -1.401910    2.211696
H       0.899430    2.027736   -0.092636
H      -0.478056    1.839483   -1.191873
H      -0.754409    1.976243    0.548517
H      -0.937927   -0.434882   -0.251634
H       1.104086   -1.009808   -1.923207
H       2.267411   -2.167977    0.463994
H       2.204831    0.230666    2.659668
H       0.743012    1.246566    2.520394
H      -1.224479   -1.277178    2.128617
H       0.094700   -2.474620    2.259016
