12

O       0.034322    0.011082    0.009318
C      -0.021048    1.192415    0.068464
C      -1.126059    2.259844    0.154452
C       0.019923    3.262841    0.052021
C       1.036952    3.059327    1.105920
C       0.695864    2.554197    2.414793
N       0.422394    2.169988    3.470383
N       1.073447    2.168518   -0.102017
H      -1.770796    2.234975   -0.727097
H      -1.738331    2.274729    1.058191
H       0.045687    4.134344   -0.589893
H       1.885704    3.736668    1.111362
