17

N      -0.094357    1.311495    0.073054
C      -0.032961    0.060515   -0.065170
O      -1.134002   -0.694638    0.140753
C      -1.001364   -2.111738    0.076356
C      -1.036178   -2.679433    1.494534
O      -1.040163   -4.110561    1.468457
C      -1.770169   -4.675395    0.472173
N      -2.325372   -4.132888   -0.524230
C      -2.168743   -2.694545   -0.718085
H       0.808942    1.730596   -0.136998
H       0.848560   -0.526749   -0.358647
H      -0.050303   -2.383492   -0.400646
H      -0.159273   -2.381428    2.073808
H      -1.935038   -2.317734    2.008410
H      -1.830511   -5.750479    0.627929
H      -3.091945   -2.181873   -0.420984
H      -2.037132   -2.500718   -1.787567
