12

O       0.044255    0.026401   -0.053184
C       0.015175    1.213511    0.041067
C      -1.136811    2.257311    0.144727
C      -0.055969    3.334743   -0.062034
N       0.868854    3.191728    1.078157
C       1.061344    2.308979   -0.107563
C      -0.160541    4.534933   -0.821241
N      -0.255915    5.515095   -1.429206
H      -1.825379    2.148970   -0.696781
H      -1.683737    2.317663    1.086420
H       1.578658    3.923154    1.015246
H       1.988215    2.313039   -0.667047
