17

C       0.042501    1.516199    0.005096
C      -0.077653    0.032600    0.068869
C      -1.148456   -0.713626   -0.255135
N      -1.155304   -2.095821   -0.158680
C      -0.087554   -2.688170    0.260049
C      -0.044179   -4.179661    0.382111
C       1.131274   -1.946131    0.636551
N       2.186092   -2.519058    1.049402
O       1.062329   -0.569838    0.513702
H       0.856526    1.811262   -0.666400
H      -0.888334    1.958063   -0.354690
H       0.271275    1.929893    0.993597
H      -2.058685   -0.246501   -0.609418
H      -1.002822   -4.598748    0.074713
H       0.761847   -4.591820   -0.233835
H       0.182678   -4.474003    1.412069
H       2.914873   -1.834906    1.257330
