19

O      -0.162994   -0.015388    0.040432
C      -0.058079    1.177293   -0.078452
C       1.245786    1.941889   -0.055581
C       1.414934    2.814410   -1.322698
C       2.647722    3.664491   -1.293380
C       3.722764    3.590375   -2.074007
C       4.714203    4.652644   -1.700295
O       4.116685    5.353821   -0.611195
C       2.838200    4.805191   -0.320803
H      -0.959727    1.819580   -0.224325
H       1.230125    2.589160    0.832394
H       2.071958    1.234669    0.053627
H       1.438992    2.166093   -2.204780
H       0.527880    3.455957   -1.427068
H       3.885805    2.883279   -2.878241
H       5.684552    4.236101   -1.386443
H       4.916915    5.349902   -2.529234
H       2.057642    5.576165   -0.438197
H       2.806835    4.478433    0.731259
