19

N      -0.179665    1.256465   -0.357968
C      -0.099946    0.003498   -0.232207
O      -1.212374   -0.724296   -0.015855
C      -1.025539   -2.116947    0.234801
C      -2.384218   -2.794338    0.132211
C      -2.304733   -4.288417    0.466639
N      -3.591245   -4.954431    0.357954
C      -3.869223   -5.872949   -0.607662
O      -3.089066   -6.260223   -1.451047
H       0.743528    1.646517   -0.535690
H       0.816419   -0.601245   -0.290480
H      -0.324491   -2.543661   -0.496005
H      -0.594621   -2.257905    1.236549
H      -3.078148   -2.288841    0.814400
H      -2.778235   -2.664237   -0.880772
H      -1.640799   -4.807098   -0.229613
H      -1.903744   -4.429528    1.478794
H      -4.331223   -4.691307    0.989490
H      -4.911197   -6.241778   -0.532417
