13

N       0.045345    1.356104    0.178702
C       0.014475   -0.006934    0.035905
N      -1.054367   -0.763255   -0.042276
N      -0.577695   -2.070039   -0.082739
C       0.769919   -2.090031   -0.048485
N       1.821331   -2.893599   -0.071065
C       2.836216   -1.976187   -0.001083
N       2.511697   -0.685461    0.063183
N       1.146340   -0.783910    0.033563
H       0.867074    1.795066   -0.212658
H      -0.817509    1.808312   -0.087070
H      -1.225607   -2.832221   -0.151210
H       3.874190   -2.277338    0.002016
