21

C      -0.045068    1.481262   -0.196967
C       1.308509    0.876806    0.085383
C       1.973871    0.967476    1.444809
C       2.759679   -0.309538    1.776338
C       1.947003   -1.569359    2.014815
O       0.971780   -1.563553    3.061490
C       0.516428   -1.790043    1.718323
C      -0.432832   -0.747564    1.132886
C       0.105175   -0.018862   -0.085699
H      -0.551247    1.994563    0.615342
H      -0.223125    1.917124   -1.174030
H       2.010084    0.884793   -0.745955
H       2.658583    1.823533    1.467467
H       1.233968    1.150382    2.230002
H       3.460896   -0.525101    0.958538
H       3.378859   -0.147234    2.668640
H       2.570214   -2.468285    2.026220
H       0.225785   -2.827424    1.539302
H      -1.384033   -1.231752    0.884523
H      -0.658197   -0.032793    1.929419
H       0.051715   -0.580621   -1.014252
