20

C      -0.165635    1.577916    0.027956
C       0.055148    0.070445   -0.001069
C       1.172388   -0.535175   -0.924655
C       1.763161   -1.280876    0.283299
C       2.294592   -2.684086    0.264770
C       2.183850   -0.249796    1.312395
C       0.729747   -0.623577    1.190079
O       0.033193   -1.215671    2.233166
H       0.764594    2.118425    0.233666
H      -0.551785    1.939197   -0.931499
H      -0.891660    1.855734    0.800706
H      -0.892343   -0.439390   -0.204064
H       0.772854   -1.198291   -1.696355
H       1.840422    0.192325   -1.399421
H       3.278932   -2.735703   -0.216118
H       2.398651   -3.076066    1.281570
H       1.622587   -3.354816   -0.283000
H       2.667155   -0.667831    2.190859
H       2.560729    0.726512    1.013505
H       0.006080   -0.598535    2.972072
