19

C      -0.599413    1.192926    0.497250
C       0.126758   -0.077206    0.134287
O       1.401525    0.050241   -0.507383
C       1.356407   -0.574531    0.779681
C       2.078867    0.123678    1.908508
C       1.731311   -0.494449    3.279382
O       2.028518   -1.889273    3.322556
C       2.390028    0.231925    4.368033
C       2.975605    0.815530    5.240775
H       0.062180    1.927996    0.959636
H      -1.028285    1.648471   -0.401517
H      -1.423402    0.978175    1.186642
H      -0.511173   -0.835686   -0.325574
H       1.523011   -1.651453    0.754533
H       3.161901    0.038822    1.751505
H       1.848387    1.191811    1.922596
H       0.644756   -0.441634    3.422020
H       2.984776   -1.978462    3.405359
H       3.475215    1.330591    6.024025
