18

C      -0.457006    1.358742    0.140584
C       0.066010   -0.055270    0.102609
C      -0.267686   -0.874145   -0.905433
C       0.085949   -2.268330   -1.217605
N      -0.169750   -2.698283   -2.389387
O       0.671701   -3.098931   -0.302716
C       0.753175   -2.720696    1.057561
O       1.595184   -1.634250    1.261556
C       0.941306   -0.383027    1.282277
H       0.366682    2.083165    0.112789
H      -1.121559    1.563610   -0.700556
H      -1.009896    1.550277    1.069120
H      -0.891936   -0.469785   -1.695668
H       0.120917   -3.675127   -2.466636
H      -0.252299   -2.526802    1.459893
H       1.197990   -3.585965    1.552914
H       1.738691    0.365805    1.360099
H       0.336377   -0.284753    2.202184
