19

C      -0.041399    1.573125    0.154569
C       1.517747    1.482091   -0.144808
C       1.172569    0.124136   -0.794276
C      -0.104690    0.003776    0.016322
C      -0.322011   -0.939765   -1.200260
C       0.345673    0.082621   -2.163861
C       1.159147   -0.704375   -3.169358
C       1.709550   -1.692045   -2.456841
C       1.211274   -1.443797   -1.049936
H      -0.316018    1.963326    1.136849
H      -0.583651    2.135067   -0.607403
H       1.979422    2.252397   -0.769048
H       2.085355    1.380387    0.785163
H      -0.009678   -0.491612    0.986822
H      -1.167354   -1.592198   -1.453482
H      -0.211423    0.958494   -2.493179
H       1.261742   -0.477668   -4.221667
H       2.375445   -2.482928   -2.772604
H       1.475415   -2.113804   -0.231056
