17

O       0.008579    1.444972    0.204615
C       0.001560    0.099789   -0.228903
C      -1.386695   -0.526641   -0.100171
C      -1.441160   -2.102188   -0.180558
N      -1.882946   -2.075390    1.233476
C      -2.317981   -2.595835    2.412671
N      -2.586586   -1.610894    3.252399
C      -2.333163   -0.420638    2.597625
C      -1.889641   -0.713856    1.331154
H      -0.182267    1.441942    1.149518
H       0.313644    0.114890   -1.278852
H       0.730908   -0.509968    0.327901
H      -2.089055   -0.023371   -0.769779
H      -2.189049   -2.514430   -0.861105
H      -0.480379   -2.601826   -0.330337
H      -2.417847   -3.649731    2.618499
H      -2.498454    0.528484    3.082450
