17

N       0.324802    0.936090   -0.560897
C       0.080940   -0.190374   -0.070658
O       0.930777   -1.118062    0.517820
C      -0.185557   -2.025638    0.788531
C      -1.164778   -1.027697    0.109474
C      -1.404060   -2.059562   -1.041315
C      -0.420484   -3.018959   -0.347609
C       0.554069   -3.985411   -0.891340
N      -0.668035   -4.451330   -0.205868
H       1.319639    1.161213   -0.505665
H      -0.199536   -2.348774    1.830545
H      -2.025406   -0.565397    0.585935
H      -2.422458   -2.453628   -1.047489
H      -1.143485   -1.715205   -2.043850
H       0.576359   -4.180216   -1.959994
H       1.513635   -4.079752   -0.389506
H      -0.444509   -4.758011    0.738889
