20

C      -0.755210    1.285734   -0.219870
C      -0.129880   -0.091219   -0.045721
C       1.088262   -0.396658   -0.977571
N       1.963535   -0.452081    0.211347
C       0.849444   -0.311691    1.166389
C       1.285096    0.801146    2.147603
C       2.816742    0.857018    1.942680
C       2.997675    0.422699    0.475805
O       3.835018    0.796918   -0.312999
H       0.000384    2.078335   -0.234910
H      -1.299899    1.337420   -1.168429
H      -1.463741    1.509992    0.584629
H      -0.906841   -0.858727   -0.090080
H       1.034892   -1.347650   -1.514868
H       1.378130    0.394101   -1.676650
H       0.639921   -1.247061    1.698461
H       0.836576    1.760627    1.874050
H       0.995127    0.586438    3.178325
H       3.258417    1.842508    2.094316
H       3.337520    0.151404    2.599882
