19

C      -0.189180    1.578131   -0.102358
C      -0.014844    0.065468   -0.015161
C       1.114829   -0.489874   -0.943247
C       1.993646   -0.614375    0.308066
O       3.175533   -0.662218    0.499683
C       0.782719   -0.455677    1.241538
C       0.927480    0.382063    2.515677
C       1.827300   -0.300330    3.530978
O       1.485741   -0.580476    4.651651
H       0.769739    2.102519   -0.019008
H      -0.630685    1.856189   -1.064643
H      -0.845895    1.953992    0.688511
H      -0.979591   -0.429854   -0.141863
H       0.884788   -1.470119   -1.372663
H       1.492377    0.161294   -1.735898
H       0.417568   -1.458911    1.498341
H       1.382709    1.350249    2.268772
H      -0.044002    0.566222    2.984205
H       2.846239   -0.534007    3.156591
