20

C      -0.015226    1.470034    0.075802
C      -0.075760   -0.044879   -0.086225
N       0.785809   -0.478222   -1.180112
C       0.885636   -1.838239   -1.442112
N       0.446305   -2.753142   -0.581215
N       0.786194   -3.934628   -1.159332
C       1.405366   -3.777731   -2.351696
C       1.499739   -2.423387   -2.588384
C       2.111185   -1.710448   -3.752369
H       1.009641    1.801747    0.267186
H      -0.373580    1.982018   -0.825669
H      -0.646164    1.792313    0.909061
H       0.273695   -0.541458    0.824052
H      -1.117577   -0.374211   -0.230952
H       0.668311    0.072863   -2.019824
H       0.558998   -4.789340   -0.684699
H       1.737074   -4.621851   -2.937111
H       1.369693   -1.137233   -4.325402
H       2.882774   -1.000467   -3.430424
H       2.578332   -2.414340   -4.446793
