18

O      -0.678227    0.825031   -0.528546
C       0.203921    0.962773    0.280944
C       1.353951    1.944898    0.173225
C       1.377125    2.803331   -1.111359
C       0.935874    4.178425   -0.617776
C      -0.495064    4.174984   -0.017824
C       0.185825    3.992415    1.331683
C       1.289784    2.994059    1.294225
N       1.550371    4.352648    0.778838
H       0.217376    0.352125    1.212803
H       2.275730    1.361969    0.296341
H       2.390978    2.848953   -1.519183
H       0.708669    2.401608   -1.876770
H       1.183508    5.003790   -1.284205
H      -0.962762    5.159485   -0.086405
H      -1.199233    3.413795   -0.362297
H      -0.163804    4.401701    2.275253
H       1.781721    2.774464    2.236401
