16

O       0.031861    1.432630    0.172763
C       0.116619    0.021698    0.091601
C       0.443149   -0.589078    1.455583
O       0.382931   -2.020633    1.410422
C      -0.624359   -2.529727    0.671194
C      -0.792226   -4.015352    0.829551
O      -0.106513   -4.707348    1.533352
N      -1.418336   -1.934359   -0.123736
C      -1.245607   -0.506515   -0.354606
H       0.921829    1.792919    0.240670
H       0.883029   -0.294047   -0.631921
H       1.454727   -0.341356    1.787336
H      -0.271485   -0.216247    2.199941
H      -1.626024   -4.399917    0.210432
H      -2.030030    0.041743    0.183786
H      -1.408260   -0.307131   -1.418523
