25

C       0.071381    1.594745    0.065076
C       0.120293    0.064962    0.071373
C       0.568825   -0.522105   -1.281348
C       0.626130   -2.021234   -1.304648
C      -0.146215   -2.841987   -2.021335
C       0.220512   -4.293842   -1.841996
C       1.147893   -4.274031   -0.596336
C       2.247313   -5.334481   -0.602740
C       1.658786   -2.811562   -0.521410
H       1.056272    2.021903   -0.155053
H      -0.625250    1.965702   -0.695140
H      -0.252989    1.987906    1.033694
H       0.798975   -0.275675    0.862707
H      -0.868227   -0.339101    0.321634
H      -0.112296   -0.170268   -2.066109
H       1.560735   -0.112732   -1.525426
H      -0.926103   -2.513121   -2.701402
H      -0.647739   -4.949129   -1.703231
H       0.750732   -4.675113   -2.728844
H       0.511291   -4.439149    0.282096
H       2.911877   -5.204920   -1.465108
H       2.862580   -5.279067    0.302007
H       1.826904   -6.344686   -0.656283
H       2.648214   -2.708323   -0.994858
H       1.781522   -2.468184    0.512385
