19

C      -0.060469    1.536501    0.050165
C       0.019747    0.020857    0.026523
O      -1.308506   -0.486140    0.025773
C      -1.443943   -1.837750    0.004863
C      -2.654137   -2.471936   -0.000485
C      -4.050846   -1.973329    0.012606
O      -2.443271   -3.825539   -0.022513
C      -1.105764   -4.034940   -0.030879
C      -0.430237   -2.855690   -0.015015
H       0.944976    1.967415    0.051204
H      -0.596826    1.906761   -0.827896
H      -0.587055    1.879704    0.944970
H       0.553872   -0.328140   -0.869333
H       0.563239   -0.355309    0.905596
H      -4.609790   -2.293291   -0.875039
H      -4.603864   -2.323590    0.892469
H      -4.035956   -0.881206    0.031230
H      -0.789348   -5.064735   -0.048199
H       0.639828   -2.729239   -0.017136
