19

C       0.083499    1.432412   -1.088869
O       0.091071    0.045243   -1.359189
C       0.711361   -0.715068   -0.331925
C       0.668505   -2.200231   -0.674296
C      -0.493637   -2.729586   -1.526270
C       0.877920   -2.643825   -2.126973
O       1.214421   -1.744582   -3.126839
C       1.194306   -3.030226    0.370902
C       1.645990   -3.711769    1.254425
H      -0.460847    1.650909   -0.158966
H       1.103938    1.832096   -0.998387
H      -0.421584    1.923687   -1.923063
H       1.757565   -0.395228   -0.205752
H       0.192616   -0.539799    0.623056
H      -0.901097   -3.701245   -1.271880
H      -1.217570   -1.985205   -1.838254
H       1.420752   -3.573835   -2.257220
H       0.799829   -0.899155   -2.901066
H       2.044161   -4.321203    2.027119
