16

O       0.091871    0.000675   -0.411993
C       0.063295    1.181787   -0.145589
N       1.124295    1.900042    0.328060
C       2.568942    1.599813    0.181965
C       2.820079    1.966785   -1.300332
C       2.468383    3.451132   -1.077968
O       3.527900    3.855320   -0.160223
C       2.841101    3.062598    0.800414
C       1.461644    3.307407    0.169043
H      -0.857401    1.798858   -0.200619
H       2.941134    0.669249    0.598888
H       3.859177    1.869719   -1.618742
H       2.160108    1.412945   -1.969748
H       2.323490    4.130603   -1.914904
H       3.131346    3.189163    1.840457
H       0.751407    4.092293    0.417586
