19

C      -0.101503    1.213777   -0.610361
C      -0.099605    0.179091    0.516857
N      -1.346538   -0.564015    0.604132
C      -1.444864   -1.892836    0.307506
O      -0.492482   -2.564895   -0.053794
C      -2.837893   -2.485838    0.490434
C      -3.066799   -3.681876   -0.424560
O      -4.348190   -4.210772   -0.113765
H       0.849646    1.755096   -0.633209
H      -0.245628    0.728859   -1.580111
H      -0.901309    1.950619   -0.475776
H       0.681438   -0.566358    0.354348
H       0.099389    0.668321    1.478719
H      -2.183290   -0.068157    0.865313
H      -2.939255   -2.818850    1.531077
H      -3.617184   -1.733679    0.324153
H      -3.008435   -3.362477   -1.476671
H      -2.265188   -4.412608   -0.261396
H      -4.478387   -5.002209   -0.643808
