19

C      -0.031010    1.604739    0.125284
C       0.016564    0.075940    0.043751
C      -1.359984   -0.586157   -0.061228
C      -2.150441   -0.246078   -1.348197
C      -3.149525   -1.380486   -1.514568
O      -4.170408   -1.392655   -2.145980
C      -2.611963   -2.585744   -0.677941
O      -3.167841   -3.645112   -0.577398
C      -1.307013   -2.132222   -0.045885
H       0.974616    2.022170    0.230317
H      -0.478539    2.044522   -0.771762
H      -0.620172    1.936336    0.987456
H       0.622892   -0.231304   -0.819803
H       0.528579   -0.319703    0.930212
H      -1.964757   -0.262682    0.797429
H      -2.646838    0.726075   -1.344271
H      -1.477943   -0.265579   -2.219399
H      -0.486528   -2.486099   -0.688470
H      -1.157362   -2.573936    0.941760
