20

C      -0.122101    1.386561   -0.046619
O       0.066980   -0.005174    0.034132
C       0.609523   -0.552069   -1.148481
C       0.733459   -2.060671   -0.958305
C       1.324317   -2.747577   -2.184751
C       1.297398   -4.307218   -2.233690
N       0.472639   -4.189511   -3.439109
C       0.409668   -2.818389   -3.438997
O      -0.160221   -2.022499   -4.138828
H       0.827690    1.920213   -0.213202
H      -0.812726    1.659494   -0.860099
H      -0.548269    1.715734    0.904425
H      -0.030105   -0.330325   -2.016572
H       1.601190   -0.111081   -1.356005
H       1.358737   -2.257734   -0.079472
H      -0.260324   -2.469883   -0.740312
H       2.308924   -2.336837   -2.430003
H       2.264023   -4.794146   -2.395199
H       0.786091   -4.776156   -1.386272
H       0.011808   -4.879369   -4.013652
