18

O       0.108370    1.536898   -0.435601
C      -0.039455    0.210119   -0.007758
C       0.416033   -0.000822    1.470938
C      -0.544917   -1.065480    2.034177
N      -1.787766   -1.042522    1.231974
C      -2.358003    0.303376    1.085905
C      -1.498784   -0.261819    0.017023
C       0.762591   -0.702158   -0.921224
O       1.411522   -0.275195   -1.845113
H       0.698353    1.502789   -1.205611
H       1.465523   -0.297507    1.551683
H       0.319386    0.966803    1.968125
H      -0.118026   -2.069641    1.936705
H      -0.777727   -0.911588    3.092392
H      -3.434100    0.324477    0.944744
H      -1.964744    1.117107    1.689182
H      -1.941777   -0.610251   -0.912077
H       0.725513   -1.785485   -0.686713
