17

C       0.065467    1.460731   -0.013376
N       0.001935    0.005957    0.018451
C      -0.005576   -0.697719   -1.196820
C      -0.329486   -1.987179   -1.299962
C      -0.721125   -2.758414   -0.069173
C      -0.013425   -2.166777    1.157652
C      -0.074618   -0.645444    1.238724
O      -0.128603   -0.045699    2.295339
H       0.920887    1.790445   -0.612858
H      -0.848245    1.888031   -0.441772
H       0.177640    1.812448    1.010830
H       0.265945   -0.093078   -2.055286
H      -0.324080   -2.464706   -2.271907
H      -1.812508   -2.721178    0.068403
H      -0.466157   -3.818385   -0.168517
H      -0.408513   -2.554706    2.098019
H       1.052941   -2.429047    1.120020
