19

C      -0.203391    1.572431    0.050502
C       0.050951    0.072963   -0.016124
C      -1.252375   -0.698662   -0.186723
C       1.173149   -0.440206   -0.973220
C       1.850473   -1.024457    0.268043
C       2.114446    0.032818    1.273286
N       0.757051   -0.515056    1.208426
C       2.400891   -2.343549    0.356179
N       2.858600   -3.405706    0.391858
H       0.715176    2.157535    0.141424
H      -0.713916    1.905296   -0.859231
H      -0.845905    1.810672    0.904516
H      -1.736664   -0.432312   -1.131982
H      -1.069557   -1.776843   -0.181151
H      -1.939347   -0.470277    0.633794
H       0.822138   -1.194713   -1.677827
H       1.763108    0.305913   -1.511908
H       2.638499   -0.260489    2.177168
H       2.328346    1.040555    0.928131
