19

C      -0.257908    1.521010   -0.027099
C       0.126136    0.037207    0.070103
C       0.798070   -0.475864   -1.171020
C       0.060838   -0.953202   -2.402175
C       1.001246   -1.899560   -1.697558
O       2.350571   -1.625693   -2.107195
C       2.267643   -0.289479   -1.543228
C       0.664021   -3.175415   -1.174749
C       0.372429   -4.253707   -0.726796
H       0.623825    2.150510   -0.187804
H      -0.946013    1.694468   -0.860640
H      -0.745740    1.860045    0.891635
H       0.788571   -0.117646    0.931266
H      -0.770344   -0.564368    0.262464
H      -0.995697   -1.150733   -2.251328
H       0.335869   -0.607347   -3.395206
H       2.516030    0.486082   -2.277005
H       2.926001   -0.200723   -0.670605
H       0.119167   -5.207769   -0.335424
