19

O      -0.090750    1.496745    0.042239
C       0.005694    0.081354    0.024854
C       0.742298   -0.486679    1.246424
C       0.476464   -1.984599    1.383821
C      -0.071176   -2.792635    0.164082
O      -0.632859   -3.781334    1.103175
C      -0.972313   -2.459443    1.669553
C      -1.403109   -1.982833    0.256919
C      -1.410412   -0.488004   -0.052754
H       0.801617    1.857441    0.057558
H       0.548691   -0.249624   -0.877161
H       1.818910   -0.294470    1.158697
H       0.398962    0.040243    2.146072
H       1.226213   -2.530214    1.960049
H       0.453480   -3.179242   -0.711098
H      -1.532556   -2.437584    2.606188
H      -2.265184   -2.529162   -0.130311
H      -2.047000    0.043994    0.665571
H      -1.830614   -0.296370   -1.045126
