17

N      -0.283754    1.152858   -0.400702
C      -0.543286    0.065070    0.178190
O      -0.517527   -1.090290   -0.528980
C      -0.893545   -2.280654    0.146048
C      -2.369019   -2.605419   -0.033948
C      -2.831360   -3.116417   -1.389245
C      -2.770743   -4.062771   -0.231819
C      -3.269925   -1.762507    0.710443
N      -3.969212   -1.076015    1.325893
H      -0.330104    1.920787    0.265652
H      -0.790473   -0.076301    1.238427
H      -0.296906   -3.082108   -0.298048
H      -0.643584   -2.217598    1.212607
H      -3.803268   -2.789853   -1.737582
H      -2.069753   -3.176568   -2.158134
H      -1.970244   -4.793541   -0.194160
H      -3.699505   -4.385290    0.222359
