16

N      -0.310094   -1.150480   -0.267309
C      -0.220510   -0.005937   -0.130710
C      -0.059094    1.439635    0.015408
C      -0.065546    1.938756    1.516683
C       1.435872    2.018220    1.320164
N       2.548316    1.865001    1.901582
C       3.491278    1.637162    0.764639
C       2.602162    1.253376   -0.471523
N       1.355131    1.922272   -0.073316
H      -0.734375    1.954509   -0.671834
H      -0.572284    2.896989    1.636621
H      -0.412519    1.227007    2.264023
H       4.057419    2.555263    0.566705
H       4.205017    0.852938    1.025753
H       2.992174    1.632166   -1.418085
H       2.463180    0.166345   -0.547889
