17

O      -0.077405    1.403932   -0.130152
C      -0.040480    0.061867    0.314878
C      -1.387972   -0.589194    0.031591
O      -1.680219   -0.534909   -1.385056
C      -1.635112   -1.973368   -1.505780
C      -1.447614   -2.146571    0.017576
O      -0.262469   -2.736386    0.499038
C      -2.654703   -2.697717    0.758967
O      -3.756493   -2.810066    0.289078
H      -0.353285    1.369753   -1.054682
H       0.760751   -0.511245   -0.169828
H       0.159001    0.078802    1.390722
H      -2.176582   -0.090460    0.607597
H      -2.571333   -2.377479   -1.901182
H      -0.778752   -2.318479   -2.096407
H      -0.275562   -3.678541    0.297265
H      -2.421772   -2.993669    1.807103
