16

C       0.311863    1.623483    0.209773
C       0.058555    0.125157    0.032646
O       0.607173   -0.502201    1.198054
C      -1.432008   -0.207553   -0.152236
C      -2.277637    0.199378    1.035949
O      -3.282460    0.858888    0.958491
C       0.885052   -0.381109   -1.156476
O       0.441184   -0.918253   -2.136042
H       1.384875    1.820915    0.284630
H      -0.096792    2.189355   -0.631557
H      -0.161014    1.975091    1.130968
H       0.470679   -1.454450    1.126281
H      -1.826575    0.263512   -1.055138
H      -1.530515   -1.294434   -0.287254
H      -1.904645   -0.167455    2.016754
H       1.979006   -0.240459   -1.003142
