16

C       0.173259    1.413892    0.171318
C      -0.200817   -0.043603   -0.123183
C       0.586716   -0.607785   -1.287270
C       1.927522   -1.238060   -1.180000
O       2.053741   -1.945365    0.084448
C       1.053677   -2.834386   -0.309287
O       0.699375   -3.812642    0.261235
C       0.764000   -2.110204   -1.596627
H       1.229931    1.500302    0.443972
H      -0.001481    2.055977   -0.699128
H      -0.421063    1.808376    1.000452
H      -0.029509   -0.653988    0.768079
H      -1.270038   -0.116611   -0.354108
H       0.468377   -0.050973   -2.217390
H       2.846327   -0.985272   -1.690021
H       0.493815   -2.558877   -2.541197
