14

C      -0.012952    1.457031   -0.089473
N      -0.008014    0.021672    0.059547
N      -0.040191   -0.785723   -1.056714
N      -0.026630   -2.031573   -0.723474
C       0.016810   -2.080516    0.649202
N       0.048818   -3.019876    1.600489
N       0.081317   -2.271050    2.717327
C       0.072000   -0.912162    2.540094
C       0.029431   -0.767234    1.166351
H       0.896489    1.897857    0.331984
H      -0.055697    1.671032   -1.157868
H      -0.885444    1.898195    0.403470
H       0.110365   -2.748477    3.604157
H       0.096228   -0.231973    3.373793
