19

C       0.034267    1.571583    0.081455
C       0.022466    0.032816    0.020123
C       0.639386   -0.498247   -1.189413
C       1.164138   -0.926136   -2.187311
C       1.744581   -1.394145   -3.397403
C       1.394086   -0.990648   -4.845832
C       1.836866   -2.421340   -5.310139
C       2.179321   -2.740822   -3.850184
O       3.137406   -1.778377   -3.416458
H       1.058073    1.953182    0.047971
H      -0.512934    1.998552   -0.763298
H      -0.434618    1.918335    1.007047
H       0.544462   -0.374293    0.895576
H      -1.011103   -0.330399    0.090675
H       0.326915   -0.812020   -4.989975
H       1.966653   -0.143259   -5.228166
H       1.003157   -3.011358   -5.697466
H       2.680243   -2.479391   -6.001818
H       2.160210   -3.691753   -3.329436
