17

C       0.004385    1.475839    0.018394
C       0.033850   -0.024498   -0.004277
N      -0.853310   -0.852113    0.850825
C       0.623109   -0.909181    1.024884
C       1.337533   -1.922847    0.103457
C       0.285969   -2.276130   -0.971517
C       0.546029   -0.783000   -1.261881
O       1.951331   -1.007283   -0.878886
H       0.933100    1.879126   -0.398498
H      -0.830971    1.871203   -0.571293
H      -0.097686    1.855350    1.040867
H      -1.235923   -0.254514    1.583728
H       1.084097   -0.548200    1.936694
H       2.035976   -2.637204    0.537331
H       0.724119   -2.902562   -1.747568
H      -0.706389   -2.603784   -0.670832
H       0.424434   -0.315518   -2.239140
