17

O      -0.424008    0.180595   -0.190999
C      -0.157053    1.325619    0.021262
C      -0.958120    2.507167    0.649453
C       0.144583    3.429107    0.088283
N       1.362232    3.006977    0.797054
C       0.942830    2.252548   -0.435100
C       0.006607    4.778497   -0.504553
C      -1.308136    5.314676   -0.939746
N      -0.643392    5.867552    0.251453
H      -1.931116    2.594357    0.159075
H      -1.073195    2.508444    1.734920
H       2.125476    3.617639    0.499636
H       1.609743    2.165178   -1.283974
H       0.893609    5.108006   -1.044871
H      -1.354338    5.986488   -1.791824
H      -2.189154    4.693645   -0.807611
H      -1.073931    5.487895    1.092320
