18

C      -0.026923    1.611587    0.154024
C       1.464661    1.218570    0.008353
C       1.174694    0.048807    1.019719
C      -0.011891    0.050557    0.020237
C      -1.175301   -0.814554   -0.345746
O      -1.587144   -0.451819   -1.693871
C      -0.736844    0.197844   -2.533695
N       0.467326    0.576982   -2.382366
C       1.031132    0.207896   -1.103754
H      -0.336047    2.003085    1.126924
H      -0.467048    2.179466   -0.665491
H       2.328421    1.883782    0.012174
H       1.846052   -0.814054    0.984065
H       0.958745    0.349962    2.047570
H      -0.902484   -1.876827   -0.350777
H      -2.066162   -0.684248    0.275708
H      -1.262771    0.390683   -3.467581
H       1.728579   -0.627644   -1.236013
