16

O       0.392124    1.211282   -0.576675
C       0.084493   -0.090363   -0.092987
C       0.588713   -0.339383    1.314608
C      -0.350365   -0.802994    2.139322
C      -1.670590   -0.977145    1.436774
O      -2.629749    0.071300    1.739796
C      -2.395298    0.693836    0.457469
C      -1.427269   -0.424731    0.013399
H       0.166263    1.842584    0.115134
H       0.570164   -0.759267   -0.813080
H       1.618248   -0.123063    1.581370
H      -0.217739   -1.022666    3.192915
H      -2.119101   -1.968661    1.562537
H      -3.318865    0.773933   -0.126244
H      -1.960235    1.697155    0.553752
H      -1.789627   -1.023276   -0.821196
