13

N       0.266020    1.281828    0.003822
C       0.067567    0.024068    0.001381
N      -1.180276   -0.552833    0.012698
C      -2.406475    0.088074    0.027409
N      -3.494435   -0.656735    0.035198
O      -4.552520    0.246636    0.049621
C      -4.058931    1.492244    0.049689
C      -2.703413    1.483033    0.036053
H       1.263421    1.478555   -0.006022
H       0.850868   -0.742215   -0.009640
H      -1.231591   -1.559270    0.009059
H      -4.790277    2.285739    0.060270
H      -2.001379    2.295092    0.032239
