15

C      -0.059076    1.565214    0.005271
C       0.034234    0.050371    0.046469
C      -1.127777   -0.640568   -0.450307
N      -2.059258   -1.198639   -0.850838
C       1.328315   -0.709955   -0.229054
O       2.522378    0.042684   -0.126979
C       2.602307    0.405135    1.182552
N       1.689998    0.017017    1.980431
C       0.761294   -0.729934    1.171897
H       0.781027    2.030783    0.521189
H      -0.070056    1.919645   -1.029000
H      -0.978710    1.896325    0.494229
H       1.380531   -1.513715   -0.950847
H       3.464222    1.009182    1.436141
H       0.251097   -1.562745    1.637576
