15

O       0.053257    1.400642   -0.093539
C       0.056750   -0.001778    0.048385
C      -1.368415   -0.563861    0.073242
O      -2.009345   -0.214886   -1.169732
C      -2.423579   -1.357591   -1.821072
N      -3.009681   -1.388168   -2.941798
C      -2.063877   -2.504829   -0.976938
C      -1.463691   -2.060809    0.127266
H      -0.437706    1.595164   -0.900324
H       0.617167   -0.499560   -0.758140
H       0.555451   -0.226097    0.997420
H      -1.923414   -0.074272    0.885268
H      -3.137552   -0.444734   -3.310219
H      -2.285299   -3.521799   -1.264383
H      -1.080909   -2.646082    0.952831
