22

C      -0.073378    1.416939    0.226355
C       0.092376   -0.087285    0.113695
C      -0.936107   -0.845997    0.937498
C       0.546578   -0.778697   -1.110676
C       1.614108   -0.003682   -1.885627
C       2.485703   -0.125474   -0.610305
C       3.173013    1.036717    0.088761
O       3.682920    0.611491    1.342285
N       1.390373   -0.825163    0.169430
H       0.496821    1.982919   -0.509624
H      -1.130068    1.669508    0.084749
H       0.214101    1.766977    1.224003
H      -1.950665   -0.628045    0.586374
H      -0.764671   -1.922957    0.875372
H      -0.873482   -0.555273    1.991800
H       0.048955   -1.669443   -1.484654
H       2.024647   -0.545464   -2.738772
H       1.329592    0.998594   -2.219315
H       3.248029   -0.896455   -0.762184
H       4.030984    1.366527   -0.509794
H       2.508478    1.902232    0.205592
H       2.999729    0.059933    1.742807
