16

N      -0.267568   -1.151593    0.050820
C      -0.146866   -0.005555    0.131729
C       0.022487    1.441458    0.226612
C       1.406961    1.896754   -0.267328
N       1.468922    3.353015   -0.176041
C       2.017078    3.929578    1.039603
C       2.784287    3.999820   -0.248246
C       3.989170    3.216602   -0.385615
N       4.953158    2.592626   -0.523952
H      -0.755638    1.937945   -0.361951
H      -0.122494    1.746008    1.269353
H       2.196183    1.393583    0.310226
H       1.536445    1.613587   -1.315779
H       1.529318    4.825479    1.411192
H       2.407591    3.256534    1.800906
H       2.798178    4.928529   -0.811340
