21

C       0.637195    1.774268   -0.102985
C       0.215118    0.297388    0.000320
C       0.709442   -0.534115   -1.174393
C       0.175655   -0.334450   -2.558396
C       1.648287   -1.405789   -0.796284
C       1.942918   -1.352057    0.680574
C       0.829665   -0.439652    1.200915
C       0.740458    0.023622    2.587947
O      -0.095797   -1.037920    2.119941
H       1.727350    1.869235   -0.146175
H       0.225905    2.239006   -1.004574
H       0.278980    2.349643    0.756067
H      -0.878059    0.251275    0.089442
H       0.341143    0.690143   -2.913669
H       0.646626   -1.017080   -3.270998
H      -0.908377   -0.503614   -2.590748
H       2.160685   -2.086113   -1.468672
H       1.890179   -2.327802    1.176711
H       2.942223   -0.942963    0.885887
H       1.509834   -0.265843    3.304242
H       0.226137    0.954824    2.824183
