18

O      -0.024003    1.442886   -0.244752
C       0.112514    0.074225    0.098263
C      -1.248197   -0.598292    0.101058
O      -1.952262   -0.502035   -1.183265
C      -2.429504   -1.869166   -1.050253
C      -1.640928   -2.936067   -1.822637
C      -0.226660   -2.566468   -1.939942
N      -0.676736   -3.123724   -0.643398
C      -1.506392   -2.114490    0.141533
H      -0.503012    1.470220   -1.081392
H       0.826070   -0.435976   -0.560228
H       0.524217    0.039284    1.113229
H      -1.862056   -0.102856    0.868360
H      -3.518189   -1.941024   -1.037823
H      -2.087700   -3.786440   -2.327740
H       0.426951   -3.262324   -2.457107
H       0.032873   -1.522937   -2.052758
H      -1.818153   -2.560240    1.084139
