21

C       0.148822    1.447707   -0.079140
C       0.061940   -0.055297    0.204116
O       0.642358   -0.383179    1.466141
C      -1.374816   -0.608977    0.095830
C      -2.250161   -0.163905    1.266939
C      -2.089054   -0.655155   -1.303429
C      -1.122723   -1.754646   -1.801970
C      -1.589280   -2.093890   -0.365757
O      -2.965590   -1.735858   -0.793896
H       1.185702    1.780857    0.018198
H      -0.195385    1.680532   -1.092225
H      -0.460973    2.029057    0.621230
H       0.710203   -0.566128   -0.510624
H       0.225814    0.168780    2.136064
H      -2.303641    0.927626    1.340771
H      -3.262389   -0.547063    1.144988
H      -1.853381   -0.547377    2.212512
H      -2.568568    0.151664   -1.860929
H      -1.553962   -2.401470   -2.565758
H      -0.077475   -1.519076   -2.000646
H      -1.468080   -3.015661    0.204482
