23

C      -0.467265    1.396489   -0.108862
C      -0.018844   -0.069235   -0.050764
C       0.803976   -0.468874    1.190298
C       0.047317   -0.222878    2.503281
O       0.070850    1.168290    2.803191
C       1.251694   -1.963818    1.121421
C       1.960421   -2.346582   -0.196782
C       2.125976   -2.307198    2.245756
C       2.878325   -2.593061    3.139746
H       0.393571    2.071740   -0.066109
H      -0.999541    1.588839   -1.046364
H      -1.120875    1.659863    0.723672
H      -0.900758   -0.724104   -0.110252
H       0.570976   -0.275837   -0.949321
H       1.712442    0.146534    1.230656
H      -0.988760   -0.589647    2.400955
H       0.523311   -0.793874    3.310797
H      -0.356470    1.294322    3.655350
H       0.344914   -2.582730    1.202059
H       1.279289   -2.291432   -1.048157
H       2.810375   -1.683210   -0.385397
H       2.340361   -3.369148   -0.132570
H       3.532754   -2.846950    3.936398
