19

C       0.001352    1.460545    0.143653
C      -0.030893   -0.072106    0.008633
C      -1.462508   -0.613706   -0.013136
O      -2.091333   -0.238420    1.222379
C      -3.399194   -0.570558    1.338458
C      -3.942305   -0.130314    2.675671
O      -4.017073   -1.138489    0.475685
C       0.664227   -0.478873   -1.279679
O       1.637147   -1.182433   -1.347442
H       1.029389    1.824921    0.220758
H      -0.466276    1.942431   -0.722922
H      -0.545116    1.769419    1.036883
H       0.516362   -0.538048    0.833757
H      -2.036956   -0.202619   -0.850991
H      -1.476545   -1.704436   -0.105930
H      -3.846116    0.954101    2.781148
H      -4.989472   -0.419423    2.753573
H      -3.365970   -0.588075    3.484452
H       0.200441   -0.049945   -2.200390
