17

N       0.127344    1.057219   -0.584733
C       0.141678   -0.049703    0.233371
O       0.967239   -0.217408    1.104967
C      -1.089853   -0.929269    0.113023
C      -1.754633   -1.536232   -1.101773
C      -0.754809   -2.137921   -2.133120
N       0.620623   -1.839372   -1.670813
C      -0.135105   -2.971980   -1.086132
C      -1.118647   -2.419463   -0.017850
H       0.992589    1.576970   -0.606644
H      -0.351563    0.974096   -1.467289
H      -1.841242   -0.593081    0.827532
H      -2.806537   -1.398362   -1.317654
H      -0.974034   -2.351832   -3.170857
H       1.275177   -2.222861   -2.351289
H       0.248773   -3.982328   -1.124412
H      -1.617669   -3.058019    0.698982
