21

C       0.037419    1.561817   -0.386123
C       0.020187    0.105571    0.096433
C      -1.365878   -0.284884    0.605712
C       0.572325   -0.865283   -0.969292
C       2.082862   -0.877669   -0.696867
C       2.126895   -0.697678    0.825505
O       0.941932   -0.011515    1.210671
C       2.185131   -2.021534    1.587383
O       2.757425   -3.008353    1.203458
H       1.018723    1.836171   -0.785033
H      -0.708126    1.721956   -1.171854
H      -0.187995    2.234065    0.446471
H      -2.103039   -0.232902   -0.201953
H      -1.355944   -1.304561    1.001156
H      -1.686612    0.389347    1.405321
H       0.153370   -1.865730   -0.815728
H       0.320783   -0.550797   -1.984765
H       2.575858   -1.805448   -0.992849
H       2.584576   -0.045420   -1.197099
H       3.000947   -0.111009    1.147898
H       1.636554   -1.991170    2.555208
