13

C       0.050059    1.430746    0.080921
N      -0.014108   -0.015538    0.152340
C      -1.138808   -0.603004    0.057581
C      -1.168484   -2.068090    0.133828
N      -2.204971   -2.810367    0.057387
O      -3.440168   -2.101076   -0.120300
C      -3.380384   -0.771228   -0.185774
F      -4.593284   -0.309082   -0.347484
N      -2.391108    0.011260   -0.116839
H       0.716769    1.707992   -0.743975
H      -0.918778    1.921283   -0.054477
H       0.521322    1.802767    0.998151
H      -0.232894   -2.602294    0.268249
