21

C      -0.453306   -2.255235   -2.980554
C      -0.413785   -1.136033   -1.933814
C      -0.309120    0.235674   -2.610988
N      -1.586018   -1.087764   -1.026656
C      -2.558394   -2.163339   -0.901931
C      -1.647723   -1.821226    0.225431
C      -0.579134   -2.827457    0.642570
C       0.596178   -2.191380    1.241615
N       1.518606   -1.681564    1.715715
H       0.417084   -2.174679   -3.638527
H      -0.434083   -3.256381   -2.538615
H      -1.352221   -2.177551   -3.601832
H       0.482877   -1.269147   -1.315166
H      -0.268095    1.027556   -1.859420
H       0.588974    0.297223   -3.234395
H      -1.183681    0.417352   -3.244593
H      -3.603022   -1.860463   -0.886304
H      -2.377316   -3.109439   -1.408705
H      -2.027872   -1.239267    1.063991
H      -1.004798   -3.520116    1.378298
H      -0.252147   -3.432875   -0.208345
