17

C       0.207789    1.119395   -0.762696
C      -0.113096    0.162767    0.362985
O       0.519462    0.116940    1.397682
C      -1.255138   -0.770499    0.149858
C      -1.917563   -1.487172    1.319185
C      -1.113716   -2.272404    0.325437
O      -1.754036   -2.855037   -0.774584
C      -2.574294   -1.853800   -1.347951
O      -2.009749   -0.592391   -1.023240
H       1.093237    1.699960   -0.502925
H       0.368718    0.568999   -1.695098
H      -0.642401    1.785853   -0.942648
H      -1.438057   -1.304765    2.274267
H      -2.998296   -1.567050    1.333995
H      -0.183604   -2.759058    0.587827
H      -2.590466   -1.978283   -2.434664
H      -3.597508   -1.920527   -0.946473
