18

C       0.977062    1.007371    0.116178
C      -0.083211   -0.056559    0.040658
N      -0.869013   -0.374345    1.002657
O      -0.576971    0.352148    2.163416
C      -0.231100   -0.834111   -1.203086
C      -1.114958   -2.014340   -1.435740
C       0.371292   -2.163882   -1.670980
C       0.762861   -1.391918   -2.921585
O       0.089758   -0.192962   -2.449150
H       1.808466    0.673537    0.747634
H       1.352320    1.238149   -0.880488
H       0.571633    1.909866    0.580260
H      -1.257904    0.044975    2.771320
H      -1.484974   -2.490519   -0.535407
H      -1.805395   -1.990842   -2.274615
H       0.988987   -2.869625   -1.132705
H       1.840178   -1.214947   -3.014421
H       0.360883   -1.739545   -3.880630
