18

O      -0.121355    1.409252   -0.227598
C       0.009247    0.043790    0.144492
C      -1.371140   -0.575795    0.039630
C      -2.023664   -0.711575   -1.361810
C      -1.180335   -1.981581   -1.598980
C      -1.465191   -2.148464   -0.061913
C      -2.967649   -2.270731   -0.121318
N      -3.736650   -3.064797    0.480570
O      -3.325295   -1.279145   -1.016357
H       0.719944    1.848180   -0.070747
H       0.741495   -0.472030   -0.493155
H       0.360411   -0.056951    1.183415
H      -2.029122   -0.111992    0.779837
H      -2.153286    0.104971   -2.066707
H      -1.596743   -2.729519   -2.276348
H      -0.134133   -1.791347   -1.832510
H      -0.935876   -2.838012    0.589970
H      -4.709295   -2.886432    0.221525
