15

C       0.098685    1.452065    0.004379
N       0.018815    0.002594   -0.000591
C      -0.006255   -0.750467   -1.176202
O      -0.046694   -0.292341   -2.290026
C       0.002315   -2.201181   -0.754768
N       1.225961   -2.510537    0.025812
C      -0.047964   -2.209306    0.724782
C      -0.086077   -0.764361    1.163703
O      -0.203090   -0.326793    2.280334
H       1.101497    1.786076   -0.277435
H      -0.619321    1.861354   -0.709106
H      -0.131168    1.792018    1.014450
H      -0.455076   -2.945201   -1.393379
H       1.357582   -3.521607    0.025347
H      -0.546434   -2.960230    1.323298
