16

N       0.278453    1.288641    0.387346
C       0.139120   -0.060495    0.109149
N      -1.061074   -0.611430   -0.049116
N      -0.798058   -1.933888   -0.220157
C       0.517594   -2.222030   -0.176341
C       1.184377   -1.029323    0.028253
C       2.662682   -0.777045    0.109264
C       3.008530   -0.134682    1.441889
O       3.274373    1.033227    1.575957
H       1.185673    1.684838    0.193893
H      -0.488880    1.859092    0.064898
H      -1.566518   -2.565062   -0.359993
H       0.889477   -3.227057   -0.304759
H       3.205329   -1.724887    0.016823
H       3.007420   -0.103143   -0.684479
H       2.953771   -0.818483    2.317780
