18

C      -0.487314    1.353715    0.078516
C       0.241579    0.026506    0.111108
O       0.861815   -0.357573    1.075953
C       0.166773   -0.806545   -1.158575
C       0.530630   -2.283271   -1.073502
N      -0.542437   -2.932467   -0.280323
C      -0.740839   -2.693482   -1.729474
C      -1.248596   -1.243700   -1.769453
O      -2.403909   -0.986671   -1.024829
H      -0.145397    1.960240   -0.768466
H      -1.555563    1.165696   -0.074586
H      -0.323542    1.894908    1.011229
H       0.734952   -0.292740   -1.943074
H       1.512986   -2.731231   -1.138851
H      -0.290025   -3.909835   -0.149564
H      -0.961911   -3.504977   -2.411127
H      -1.405600   -0.843567   -2.772257
H      -2.316166   -1.535101   -0.229953
