19

C       0.020334    1.389902    0.041697
O       0.111713   -0.012754    0.055835
C       0.614044   -0.543863   -1.149642
C       0.667100   -2.059768   -1.026139
C       1.223046   -2.726213   -2.285026
C       1.102319   -4.249787   -2.233908
N       2.012710   -4.920572   -3.001223
O       0.259440   -4.826441   -1.575732
H       1.003622    1.864060   -0.111155
H      -0.656982    1.749431   -0.749961
H      -0.374399    1.703336    1.011329
H      -0.030615   -0.249524   -1.997868
H       1.618912   -0.133232   -1.358660
H       1.281125   -2.324400   -0.158584
H      -0.334328   -2.450290   -0.828312
H       0.660627   -2.390114   -3.168044
H       2.266672   -2.436267   -2.459035
H       2.665448   -4.445803   -3.599163
H       1.921504   -5.920098   -3.081188
