13

O       0.022286    0.007967    0.003221
C      -0.016841    1.210805    0.010293
C      -1.313825    2.098058    0.033022
C      -0.720030    3.464845    0.032000
C       0.645961    3.395078    0.012679
N       1.078174    2.069486   -0.000253
N       1.204133    4.617341    0.011349
N       0.212207    5.487922    0.029817
N      -0.951421    4.794355    0.042227
H      -1.923512    1.855073   -0.842924
H      -1.898922    1.845748    0.922992
H       2.029359    1.741492   -0.015545
H      -1.816785    5.309761    0.056962
