15

O      -0.081297    1.437188   -0.010916
C      -0.034665    0.025827   -0.003598
C      -1.419615   -0.592483    0.046300
O      -2.081542   -0.174123   -1.166090
C      -3.347945   -0.542690   -1.306961
N      -4.068180   -0.165413   -2.358944
N      -5.222276   -0.763755   -2.071073
N      -5.238342   -1.452328   -0.948423
N      -4.035369   -1.323929   -0.436921
H      -0.617678    1.693494   -0.769414
H       0.506777   -0.369355   -0.877275
H       0.516189   -0.272249    0.894264
H      -1.377315   -1.686290    0.086106
H      -1.984930   -0.227401    0.909376
H      -6.030872   -0.694928   -2.670650
