15

O       0.388132    1.355904    0.081254
C       0.083996   -0.000468    0.010265
C       0.169421   -0.831039    1.323717
O      -0.696971   -0.057280    2.217265
C      -1.787128   -0.567891    1.458540
C      -1.050877   -1.685249    0.850353
C      -1.376086   -0.469679   -0.049185
C      -2.399610   -0.397739   -1.096588
O      -3.424977   -1.043468   -1.078185
H       0.000790    1.669344    0.910219
H       0.679129   -0.447804   -0.789841
H       1.099989   -1.151606    1.784355
H      -2.806153   -0.438584    1.794493
H      -1.253440   -2.732901    0.688200
H      -2.177816    0.311506   -1.923460
