17

O      -0.089800    1.410101    0.009771
C      -0.034950   -0.010291    0.002691
C      -1.444414   -0.528203    0.012754
C      -2.554133   -0.265535   -1.051769
C      -3.209933   -1.175162    0.025608
C      -1.900693   -2.017215    0.011457
C      -2.535739   -0.273032    1.097920
H       0.811636    1.744664    0.002998
H       0.488110   -0.387285   -0.891975
H       0.503790   -0.395560    0.884437
H      -2.922506    0.760255   -1.125239
H      -2.396488   -0.709250   -2.039602
H      -4.232397   -1.554052    0.033014
H      -1.694760   -2.592030   -0.896660
H      -1.679232   -2.598349    0.911864
H      -2.361244   -0.723598    2.079799
H      -2.902698    0.752211    1.184811
