19

O      -0.939098    1.519577   -0.061209
C       0.100396    1.236216    0.481720
C       1.420976    1.899139    0.202849
C       1.475261    2.998836   -0.884579
C       2.030060    4.019041    0.154036
C       1.105628    5.168188    0.568225
C       0.087304    4.466253    1.479911
O       0.816959    3.424164    2.141208
C       1.845897    2.967024    1.289612
H       0.134016    0.452226    1.270799
H       2.188678    1.124121    0.103521
H       2.138138    2.785886   -1.724947
H       0.484094    3.245288   -1.273654
H       3.055557    4.338969   -0.034189
H       1.666061    5.919973    1.132969
H       0.630495    5.662829   -0.283400
H      -0.330905    5.114132    2.254410
H      -0.739446    4.039149    0.897604
H       2.698702    2.685094    1.910909
