18

C      -0.093968    1.514875   -0.731785
C      -0.065012    0.204144    0.024667
C       0.852601   -0.880917   -0.454562
N       1.133795   -0.181150    0.798685
C      -1.386474   -0.191270    0.644742
O      -2.420284    0.275647    0.232690
C      -1.332222   -1.176342    1.822742
C      -2.637145   -1.629427    2.271293
C      -3.709681   -2.014807    2.649065
H       0.864073    1.696031   -1.228888
H      -0.885805    1.503095   -1.483635
H      -0.298100    2.351002   -0.055153
H       0.579750   -1.927518   -0.352531
H       1.447488   -0.654830   -1.335775
H       1.863609    0.514059    0.663348
H      -0.691675   -2.026688    1.560966
H      -0.785701   -0.671000    2.629736
H      -4.661265   -2.349811    2.979663
