15

O      -0.298254    0.065159    0.000906
C      -0.080460    1.258006    0.007890
N       1.163448    1.822819    0.000511
C       2.372522    1.122917   -0.015728
C       2.580030   -0.203263   -0.028697
N       3.964210   -0.471500   -0.042492
C       4.723735    0.676598   -0.038848
O       5.930191    0.749582   -0.048419
C       3.701032    1.833246   -0.020718
H      -0.877300    2.025360    0.021049
H       1.214134    2.829529    0.007239
H       1.857968   -1.000405   -0.029283
H       4.373479   -1.390554   -0.053444
H       3.857991    2.469814   -0.899245
H       3.872399    2.454856    0.865786
