21

C       0.135767    1.335523   -0.103662
O      -0.152468   -0.039989    0.082957
C       0.557756   -0.615730    1.159841
C       0.103600   -2.012868    1.540206
C       0.270280   -2.947606    0.372309
C       1.488293   -2.597518    1.176610
C       2.325506   -3.616213    1.895182
C       1.974706   -1.191432    0.783948
O       2.415061   -0.951508   -0.529798
H       1.198798    1.504387   -0.319451
H      -0.460897    1.677033   -0.953093
H      -0.141852    1.923199    0.784192
H       0.590717    0.078559    2.009384
H      -0.536864   -2.251171    2.380772
H      -0.107929   -3.951883    0.536680
H       0.130356   -2.590982   -0.643482
H       1.712887   -4.441868    2.272544
H       3.081258   -4.044809    1.226489
H       2.851648   -3.172120    2.748233
H       2.762347   -0.839184    1.456957
H       1.619631   -0.874034   -1.071294
