18

C       0.312598    1.094995   -0.450168
C      -0.569459    0.400861    0.593565
C       0.237658   -0.305217    1.660803
C      -0.236716   -1.570873    2.352279
O      -1.284238   -2.276266    1.719574
C      -0.652146   -3.081265    0.740045
O       0.485237   -2.366910    0.290287
C       0.929336   -1.633637    1.413630
H       0.930720    0.363236   -0.979118
H      -0.296398    1.623501   -1.190370
H       0.982268    1.827640    0.014033
H      -1.224268    1.134741    1.079458
H      -1.228849   -0.319420    0.103411
H       0.806619    0.354073    2.315416
H      -0.179554   -1.703946    3.427383
H      -0.349945   -4.049262    1.176008
H      -1.337377   -3.232368   -0.098573
H       1.956094   -1.823146    1.708120
