15

C      -0.053601    1.592051   -0.001926
C       0.045888    0.097468   -0.004547
C       0.653414   -0.931850   -0.925884
O       1.117868   -1.730684    0.179051
C       0.639041   -0.763923    1.074327
N       0.763874   -0.656383    2.311199
C      -0.844813   -0.818289   -0.881441
C      -1.689053   -1.858828   -0.357303
N      -2.379529   -2.689005    0.055385
H       0.894323    2.040069    0.309399
H      -0.306894    1.973449   -0.995169
H      -0.827479    1.922369    0.697373
H       1.276310   -0.871369   -1.807934
H       1.279826   -1.439944    2.714090
H      -1.275632   -0.277066   -1.720333
