18

C       0.073825    1.478393    0.075126
C      -0.010203   -0.001217   -0.058942
N      -0.080822   -0.673068   -1.146898
C      -0.059441   -2.059064   -0.747539
C       1.147435   -2.587747   -0.019495
C      -0.007990   -2.056589    0.774022
C      -1.240438   -2.968672    0.840017
C      -1.257552   -3.025858   -0.736254
O       0.011492   -0.693627    1.145990
H       1.048435    1.770128    0.480035
H      -0.063043    1.942063   -0.901207
H      -0.688814    1.838797    0.772112
H       1.342260   -3.656329   -0.012369
H       2.030265   -1.960467   -0.050703
H      -1.117767   -3.911662    1.381312
H      -2.108015   -2.441614    1.240576
H      -2.156534   -2.579791   -1.163945
H      -1.091551   -4.004006   -1.197182
