18

C      -0.297559    1.561954    0.345224
N       0.102317    0.194144    0.025271
C      -1.024151   -0.706946   -0.282458
C      -1.438523   -1.368911    1.060754
C      -0.122411   -1.470991    1.815910
O       0.714898   -2.588199    1.357197
C       1.576551   -1.755394    0.682662
O       2.531854   -2.060496    0.048139
C       0.825543   -0.463947    1.091085
H       0.593846    2.159731    0.555444
H      -0.795249    2.002929   -0.522968
H      -0.978841    1.648801    1.210446
H      -1.835154   -0.156649   -0.762833
H      -0.684146   -1.475391   -0.986004
H      -2.122414   -0.722355    1.621376
H      -1.920364   -2.340646    0.930691
H      -0.188313   -1.476735    2.903351
H       1.425549    0.226289    1.684124
