17

C      -0.012123    1.403147    0.018165
C       1.419678    1.944542    0.008057
N       2.146556    1.277665   -1.060206
C       3.350006    1.618316   -1.642762
C       3.614683    0.616999   -2.539160
N       2.617377   -0.331986   -2.519732
C       1.759707    0.093539   -1.619051
C       0.463357   -0.541643   -1.210706
O      -0.011724   -0.010294    0.019642
H      -0.528387    1.724620    0.926281
H      -0.565707    1.790945   -0.852477
H       1.420113    3.026666   -0.159597
H       1.903999    1.745042    0.971312
H       3.880894    2.513719   -1.364295
H       4.465181    0.524396   -3.197366
H      -0.294152   -0.401812   -2.000486
H       0.596699   -1.616326   -1.065774
