19

O       0.095150    1.376198    0.182317
C       0.018029   -0.017118   -0.002414
C      -1.380444   -0.597752   -0.338659
C      -1.634541   -0.021736   -1.752508
C      -0.211832   -0.030575   -2.403544
C       0.705256   -0.587963   -1.272950
C       0.343978   -2.064665   -1.146928
O       0.992956   -3.015701   -1.495587
C      -1.045132   -2.095236   -0.477314
H      -0.235555    1.818150   -0.605973
H       0.429500   -0.449319    0.915196
H      -2.161264   -0.371129    0.388505
H      -2.354436   -0.622421   -2.314190
H      -2.045854    0.991436   -1.699565
H      -0.160162   -0.642180   -3.307069
H       0.114770    0.974658   -2.687884
H       1.769635   -0.401363   -1.405199
H      -0.955431   -2.593271    0.495315
H      -1.760759   -2.669638   -1.072917
