16

C      -0.098990   -1.282247   -0.410363
C      -0.044380   -0.104798   -0.185102
C       0.003507    1.325080    0.120153
C      -0.506980    1.661187    1.549590
C       0.267418    2.945985    1.858333
C       1.616008    2.671155    1.185455
O       1.349662    1.796073    0.074867
C      -0.797447    2.073361   -0.888173
N      -1.418036    2.687428   -1.644776
H      -0.141433   -2.322550   -0.622436
H      -1.591781    1.765729    1.585315
H      -0.208965    0.845591    2.213318
H      -0.225786    3.808607    1.400689
H       0.363373    3.135455    2.929389
H       2.099935    3.573812    0.802033
H       2.312172    2.165156    1.866558
