13

N      -0.078273    1.333763   -0.124819
C       0.016694    0.059330    0.013844
C       1.234851   -0.744315    0.127771
C       1.179428   -2.075311    0.269069
O       0.026216   -2.790718    0.319337
C      -1.141183   -2.086975    0.217273
C      -1.198268   -0.750671    0.072835
C      -2.293683   -2.928667    0.281083
N      -3.236578   -3.596775    0.331093
H       0.850148    1.761330   -0.149384
H       2.204893   -0.261347    0.098215
H       2.037622   -2.728586    0.358659
H      -2.157934   -0.255892   -0.002099
