14

N      -0.061596    1.156916   -0.059825
C      -0.078916   -0.088171    0.200206
N      -1.272227   -0.763851    0.286694
C      -2.540034   -0.266601   -0.270167
C      -2.938339   -1.725827   -0.505584
O      -3.891173   -2.308290   -0.900366
C      -1.517051   -2.189908    0.017324
C      -0.664031   -2.831080   -0.977086
N       0.016948   -3.323278   -1.771277
H       0.890707    1.514908   -0.051949
H       0.788515   -0.727888    0.397593
H      -3.168727    0.293753    0.428865
H      -2.416896    0.321714   -1.188841
H      -1.571975   -2.815483    0.916514
