17

C      -0.201328    1.317260   -0.008559
C      -0.511150   -0.174970   -0.155633
N       0.057502   -1.105886    0.807174
C       0.794514   -0.680901    1.743432
N       1.331421   -1.571321    2.662863
C       2.193209   -1.175535    3.676835
N       2.634635   -2.221320    4.465372
O       2.554010   -0.026259    3.830573
H       0.872255    1.520461   -0.082240
H      -0.700340    1.875044   -0.806670
H      -0.556860    1.715842    0.947569
H      -1.599667   -0.323044   -0.137650
H      -0.195390   -0.514431   -1.151684
H       1.088399    0.348762    1.949140
H       1.131189   -2.546746    2.498084
H       2.050908   -3.036170    4.573553
H       3.099391   -1.916188    5.306323
