18

O      -0.569936    0.238392    1.326403
C      -0.025787    1.039470    0.608935
C       1.349530    1.617925    0.836504
C       2.408470    0.918908   -0.032381
C       2.465735    1.172448   -1.567353
C       4.014540    1.170244   -1.462144
C       3.873065    1.429959    0.062168
C      -0.709660    1.497699   -0.625475
N      -1.242130    1.868593   -1.582886
H       1.339215    2.690281    0.607554
H       1.584360    1.481106    1.896479
H       2.376746   -0.157322    0.169405
H       1.991216    0.440449   -2.223927
H       2.081496    2.164607   -1.823473
H       4.433858    0.181482   -1.667020
H       4.561795    1.908644   -2.051242
H       3.904662    2.500121    0.291598
H       4.547195    0.907084    0.744466
