18

N      -0.117642    1.302692   -0.187629
C      -0.034302    0.062207    0.052982
O       1.172071   -0.563482    0.202702
C       1.308431   -1.699182    1.077562
C       0.647684   -2.988885    0.586013
C      -0.848068   -2.790084    0.310276
C      -1.164087   -1.979397   -0.963398
C      -1.281142   -0.793908    0.020600
O      -1.375921   -1.715051    1.138471
H       0.816190    1.720715   -0.187430
H       2.388095   -1.842568    1.163711
H       0.910399   -1.438586    2.061926
H       1.142315   -3.366462   -0.316444
H       0.795483   -3.739264    1.372203
H      -1.412339   -3.715881    0.454844
H      -0.395418   -1.922584   -1.735205
H      -2.124870   -2.241673   -1.407647
H      -2.149570   -0.139257   -0.052554
