16

C       0.073517    1.378983    0.139364
O      -0.041704   -0.017283   -0.012699
C       0.730863   -0.516179   -1.076681
C       0.495720   -2.008628   -1.190125
O      -0.729282   -2.389822   -1.863735
C      -0.056709   -3.159719   -2.880219
C       1.291149   -2.759450   -2.270883
O       2.443938   -2.919698   -2.528711
H       1.112159    1.682670    0.345068
H      -0.270890    1.916345   -0.757864
H      -0.553871    1.665800    0.986204
H       0.463754   -0.025517   -2.027005
H       1.808231   -0.347814   -0.901798
H       0.565020   -2.463748   -0.192287
H      -0.287820   -4.231944   -2.834076
H      -0.244604   -2.791277   -3.896650
