16

O      -0.062664    1.309836    0.004779
N       0.032864   -0.084019   -0.086303
C      -1.116664   -0.640750   -0.027651
C      -2.455771   -0.071272    0.094665
C      -3.376688   -1.046786    0.079359
C      -2.771031   -2.420706   -0.058053
C      -1.265798   -2.137640   -0.094020
C      -0.258746   -3.023395   -0.690186
O      -0.410982   -2.940139    0.726486
H       0.860516    1.581395   -0.035262
H      -2.639233    0.989769    0.180889
H      -4.447097   -0.891318    0.150119
H      -3.014087   -3.073421    0.788526
H      -3.123279   -2.930366   -0.963552
H      -0.573502   -3.963490   -1.143450
H       0.653961   -2.582208   -1.086484
