17

O       0.034000    0.092964    0.765967
C      -0.012529    1.072746    0.073091
O      -1.230584    1.627404   -0.207420
C      -1.529138    2.132026   -1.511597
C      -0.888668    3.466643   -1.862210
O       0.449909    3.346844   -2.295422
C       1.394990    2.902017   -1.379777
C       1.423449    3.234789    0.071755
C       1.228587    1.770397   -0.375911
H      -1.263465    1.390432   -2.274525
H      -2.616346    2.249325   -1.510947
H      -1.424553    3.895519   -2.714979
H      -0.986626    4.165843   -1.019550
H       2.355206    2.881951   -1.884680
H       2.363697    3.505561    0.537718
H       0.552334    3.698842    0.518252
H       2.087233    1.119941   -0.257299
