21

C      -0.016066    1.464468    0.076914
C      -0.003060   -0.040287   -0.032608
C       1.051795   -0.724912   -0.911035
C       0.417189   -2.089245   -1.297722
C      -0.696355   -2.240820   -0.270090
O      -0.082741   -2.213965    1.063436
C      -0.461006   -0.842435    1.179007
C      -1.308403   -0.832135   -0.057798
C      -2.695265   -0.369378   -0.384317
H       0.943912    1.836557    0.452733
H      -0.197263    1.937454   -0.895621
H      -0.792860    1.815073    0.764923
H       1.274318   -0.114652   -1.792378
H       1.991424   -0.862520   -0.366603
H      -0.008928   -2.061395   -2.308067
H       1.127001   -2.919942   -1.252899
H      -1.365182   -3.097116   -0.383923
H      -0.598574   -0.432376    2.174751
H      -2.862052    0.656102   -0.040026
H      -2.877020   -0.383110   -1.466149
H      -3.453467   -1.004256    0.087957
