16

C      -0.452258    1.405242   -0.257799
N      -0.104081    0.007649   -0.081714
C       0.763397   -0.522865   -0.821476
N       1.174211   -1.839046   -0.625551
C       1.782708   -2.627637   -1.589266
N       1.777336   -3.888686   -1.519316
O       2.368528   -1.904767   -2.590790
C       2.589606   -0.547162   -2.270416
O       1.392788    0.085635   -1.873817
H       0.262243    1.971737   -0.866414
H      -1.439425    1.484711   -0.729237
H      -0.530620    1.877711    0.726723
H       0.695275   -2.337058    0.109999
H       2.329538   -4.288240   -2.274913
H       3.341478   -0.466259   -1.474316
H       2.926096   -0.054804   -3.181585
