15

C      -0.145316   -1.263899   -0.198743
C      -0.064616   -0.069412   -0.095588
C       0.018886    1.371617    0.028474
C      -0.198615    2.082806    1.406598
N       1.086482    2.861782    1.266151
C       2.187016    1.863305    1.250867
C       2.167156    0.675594    2.067133
N       2.184194   -0.247406    2.763557
C       1.386851    2.066703    0.017283
H      -0.201632   -2.321920   -0.273435
H      -0.621646    1.844378   -0.721962
H      -1.044860    2.769143    1.414597
H      -0.233290    1.436858    2.285802
H       3.156174    2.354892    1.249603
H       1.844351    2.514543   -0.859224
