18

O       0.131433    1.378598   -0.234879
C       0.092892    0.011086    0.084892
C      -0.183080   -0.383005    1.554981
O      -1.384718   -1.088989    1.176653
C      -1.276451   -0.650635   -0.200820
C      -2.415723    0.272861   -0.605919
C      -3.768402   -0.446381   -0.437242
C      -4.904690    0.408918   -0.768160
N      -5.794448    1.096418   -1.035112
H       1.026055    1.704811   -0.099951
H       0.934034   -0.530940   -0.362917
H       0.544220   -1.044288    2.039608
H      -0.391110    0.477792    2.202674
H      -1.232443   -1.518222   -0.873500
H      -2.397639    1.177209    0.006824
H      -2.278112    0.586899   -1.645616
H      -3.810702   -1.340511   -1.070911
H      -3.867111   -0.787066    0.598796
