19

N      -1.074418    1.591835   -0.353442
C      -0.118332    0.492229   -0.215939
C      -0.820304   -0.726733    0.207662
N      -1.356725   -1.706533    0.503247
C       0.729905    0.216636   -1.487764
O       1.270513    1.475962   -1.838427
C       1.816477   -0.841460   -1.259220
C       2.589189   -1.192342   -2.525650
O       3.276451   -0.017880   -2.974782
H      -0.558708    2.379310   -0.738652
H      -1.776417    1.344137   -1.046749
H       0.584166    0.767505    0.581934
H       0.041389   -0.142584   -2.274899
H       2.037929    1.304474   -2.404819
H       2.518646   -0.474899   -0.500301
H       1.359501   -1.759435   -0.874015
H       3.308298   -1.996379   -2.317090
H       1.895759   -1.553158   -3.299655
H       3.636839   -0.181408   -3.851165
