19

C      -0.187706    1.575457   -0.064016
C       0.088613    0.062497    0.008653
C       0.763320   -0.504345   -1.210788
C       2.020573   -0.954178   -1.200263
N       2.637485   -1.496894   -2.324638
C       2.084192   -1.434787   -3.594870
O       2.685825   -1.806079   -4.585744
N       0.824699   -0.895842   -3.628191
C      -0.037276   -0.614220   -2.485707
H       0.744763    2.134821   -0.186776
H      -0.841848    1.830039   -0.903874
H      -0.677912    1.923455    0.850629
H       0.709908   -0.145542    0.887080
H      -0.863598   -0.461927    0.178051
H       2.634242   -0.933361   -0.306338
H       3.601415   -1.782004   -2.299965
H       0.412331   -0.917978   -4.546966
H      -0.813908   -1.392964   -2.370316
H      -0.578549    0.321789   -2.680763
