16

C      -0.074041    1.572401    0.022875
C       0.037050    0.043042    0.024261
C       1.139372   -0.646702   -0.858511
N       1.719321   -1.384581    0.314134
C       2.186966   -0.343000    1.243268
C       0.743924   -0.644351    1.210950
C      -1.277218   -0.548874   -0.218627
N      -2.324365   -1.000544   -0.408889
H       0.900152    2.029694    0.209364
H      -0.441990    1.929437   -0.943426
H      -0.769034    1.911786    0.796269
H       0.739241   -1.345082   -1.593150
H       1.841550    0.038636   -1.344434
H       2.751132   -0.744595    2.079211
H       2.575005    0.590927    0.843491
H       0.222838   -1.138026    2.024067
