20

O       0.187248    0.508939    0.927477
C      -0.269005    0.249025   -0.388213
C      -1.588664   -0.498165   -0.409199
C      -1.806845   -1.596934   -1.433963
C      -1.612287   -1.941372    0.021486
O      -0.360517   -2.442102    0.438594
C      -2.776816   -2.455216    0.817978
C      -2.769224   -3.824331    1.390216
N      -2.652106   -2.644991    2.268271
H       0.371274   -0.352315    1.319140
H      -0.387896    1.225293   -0.869782
H       0.480444   -0.311468   -0.964474
H      -2.454358    0.091202   -0.120822
H      -2.791121   -1.731376   -1.869610
H      -0.981203   -1.806640   -2.107164
H      -0.210962   -3.294650    0.016633
H      -3.730867   -2.031181    0.510703
H      -3.696510   -4.382259    1.483824
H      -1.885855   -4.439422    1.239758
H      -1.672305   -2.528893    2.521143
