19

C      -0.079560    1.566428    0.007559
C      -0.010667    0.029051    0.001088
C      -1.425751   -0.562162   -0.007615
C       0.750413   -0.462110   -1.236535
O       2.127317   -0.057063   -1.222585
C       2.732965   -0.101965   -0.010437
N       2.228097   -0.300166    1.130547
C       0.781407   -0.482682    1.223823
H       0.915738    2.017394    0.032502
H      -0.595207    1.938914   -0.884412
H      -0.629695    1.921025    0.885281
H      -2.001773   -0.203827   -0.868340
H      -1.403471   -1.656748   -0.048691
H      -1.970349   -0.273383    0.897650
H       0.714173   -1.558249   -1.296193
H       0.331923   -0.053796   -2.160778
H       3.800322    0.079269   -0.125485
H       0.437675    0.027309    2.131928
H       0.579574   -1.550859    1.383542
