16

C      -0.068243    1.462093    0.016022
C       0.002835    0.009612    0.015722
C       0.074197   -1.196764    0.017204
C       0.092182   -2.603388    0.009911
C       1.158575   -3.417728    0.151873
N       0.787958   -4.760983    0.091226
C      -0.578792   -4.913972   -0.099037
O      -1.167689   -5.964227   -0.187858
C      -1.133134   -3.483363   -0.165830
H       0.536513    1.893940   -0.789907
H      -1.098907    1.806295   -0.124362
H       0.293804    1.881693    0.961857
H       2.194122   -3.148097    0.297101
H       1.413303   -5.545441    0.172342
H      -1.882398   -3.338714    0.619500
H      -1.641166   -3.326598   -1.123114
