20

C       0.035836    1.497326    0.043609
C      -0.052716   -0.025155   -0.014732
C      -1.516233   -0.493145   -0.017665
C       0.698987   -0.562317   -1.245576
O       0.842325   -1.972294   -1.198138
C       1.569842   -2.360224   -0.043210
C       0.853977   -1.883001    1.214052
O       0.631456   -0.482709    1.167768
H       1.079467    1.816200    0.113923
H      -0.411931    1.948187   -0.847427
H      -0.494316    1.871791    0.923878
H      -2.075716    0.018370   -0.807277
H      -1.594393   -1.567082   -0.200857
H      -1.985133   -0.261302    0.942792
H       0.152323   -0.334001   -2.165674
H       1.691185   -0.084402   -1.297917
H       1.645620   -3.451731   -0.064264
H       2.586494   -1.934048   -0.076896
H      -0.092332   -2.431821    1.331015
H       1.465392   -2.068016    2.103512
