21

C      -0.067817    1.548163   -0.012151
C       1.296574    2.238281   -0.012459
C       2.010663    2.153004    1.339176
C       2.235012    0.772304    1.950605
C       2.414729   -0.560086    1.167403
O       2.215525   -1.271363    2.453610
C       1.140508   -0.251394    2.390935
C       0.878661   -0.711098    0.927699
C       0.032688    0.023501   -0.109218
H      -0.616793    1.828864    0.897551
H      -0.671362    1.907217   -0.853900
H       1.927250    1.796115   -0.796336
H       1.183003    3.296500   -0.275144
H       2.994261    2.630723    1.247524
H       1.459539    2.758181    2.073172
H       2.988831    0.841227    2.740298
H       3.245144   -0.892786    0.541263
H       0.454001   -0.203105    3.238700
H       0.628790   -1.775990    0.914111
H      -0.978856   -0.398984   -0.060578
H       0.414305   -0.246723   -1.104242
