19

C      -0.219905    1.617518   -0.066136
C      -0.031897    0.089551   -0.035516
C      -1.367169   -0.641848    0.092565
O      -1.967978   -0.244820    1.326919
C      -3.280393   -0.507373    1.470704
N      -3.853544   -0.278433    2.571882
C       0.652510   -0.375429   -1.322931
N       2.012641   -0.439833   -1.266437
O       0.025820   -0.644915   -2.331553
H       0.743949    2.133454   -0.101192
H      -0.793873    1.910975   -0.950768
H      -0.758098    1.945940    0.825299
H       0.586344   -0.175447    0.830750
H      -2.009738   -0.388760   -0.757636
H      -1.212479   -1.727986    0.090008
H      -3.749081   -0.908592    0.561178
H      -4.841363   -0.513824    2.502071
H       2.530497   -0.206318   -0.438102
H       2.516433   -0.678195   -2.105183
