18

C      -0.041262    1.307145    0.118272
C       1.267383    2.128356    0.158550
C       2.255810    1.426222    1.069758
C       2.218097    0.104818    1.000154
C       2.453165   -1.142433    1.802666
N       1.096589   -1.417176    2.387432
C       1.397384   -1.862350    1.012688
C       1.317858   -0.652497    0.049580
O       0.127270   -0.028868   -0.361692
H      -0.472810    1.290938    1.128572
H      -0.766021    1.767054   -0.560745
H       1.657769    2.254717   -0.860157
H       1.038754    3.131447    0.534448
H       2.841400    1.983234    1.794237
H       3.350506   -1.522995    2.271446
H       1.196942   -2.239095    2.986115
H       1.337240   -2.908020    0.737798
H       1.882925   -0.940367   -0.851204
