17

N      -0.045246    1.452058   -0.212416
C      -0.012945    0.017072   -0.059190
C       0.714970   -0.689564   -1.214836
O       0.106909   -1.965842   -1.350616
C      -1.283007   -1.781243   -1.116885
C      -1.367081   -0.778191    0.032280
N      -0.910457   -1.267780    1.338444
C       0.310189   -0.633303    1.325344
O       1.233557   -0.607732    2.094433
H      -0.418304    1.889944    0.625392
H       0.902487    1.806771   -0.311632
H       0.588312   -0.082947   -2.126285
H       1.780692   -0.844578   -1.027557
H      -1.784730   -1.362544   -2.004811
H      -1.720798   -2.758575   -0.895245
H      -2.289551   -0.194571    0.063764
H      -1.238843   -2.037781    1.903808
