18

C      -0.057398    1.594412    0.068603
C       0.016411    0.067350    0.018674
C       0.701350   -0.439653   -1.257021
O       2.036957    0.018700   -1.256801
C       2.745154   -0.200904   -2.460397
C       4.147286    0.356754   -2.282696
O       4.934768    0.461124   -3.183236
C       0.652283   -1.918049   -1.336675
N       0.625606   -3.071278   -1.403994
H       0.941230    2.034531    0.023384
H      -0.642750    1.990879   -0.768267
H      -0.535740    1.922864    0.995130
H       0.573224   -0.322435    0.877045
H      -0.986036   -0.371132    0.060347
H       0.168238   -0.049009   -2.139924
H       2.821319   -1.274382   -2.695795
H       2.262232    0.294383   -3.316559
H       4.382547    0.653077   -1.237214
