19

C      -0.228317    1.611259    0.027256
C       0.015873    0.121044    0.061118
O      -1.105722   -0.614847   -0.386248
C       1.325102   -0.567643   -0.263905
C       2.694259    0.118650   -0.138821
C       2.903435    0.390312    1.347923
O       1.999531    1.346159    1.914973
C       1.709964   -0.051271    2.092110
C       0.717480   -0.670376    1.140625
H       0.633321    2.182704    0.361755
H      -0.478777    1.912037   -0.999264
H      -1.081252    1.863563    0.665067
H      -1.292365   -0.334253   -1.289601
H       1.243142   -1.407607   -0.945396
H       3.475590   -0.562487   -0.493343
H       2.779721    1.039160   -0.727198
H       3.907162    0.407249    1.767062
H       1.743585   -0.394470    3.122458
H       0.214270   -1.572818    1.467135
