19

C      -0.194876    1.506615   -0.047600
C      -0.011675    0.027791    0.005576
C       0.029558   -1.048588   -1.045017
C       1.314180   -1.642947   -0.479339
C       0.924828   -0.942088    0.851325
C      -0.341653   -1.701930    1.319205
C      -1.035749   -1.107265    0.089414
C      -2.425943   -1.044682   -0.191910
C      -3.608548   -0.985080   -0.414133
H       0.706420    2.012634   -0.412659
H      -1.020336    1.761945   -0.720429
H      -0.432439    1.918227    0.939985
H      -0.298142   -0.984055   -2.074852
H       1.435902   -2.731789   -0.458940
H       2.193039   -1.182349   -0.939613
H       1.684357   -0.633124    1.566223
H      -0.275066   -2.792325    1.407116
H      -0.760295   -1.282274    2.237419
H      -4.650064   -0.939124   -0.613206
