16

C      -0.353964    1.266880    0.142699
N       0.480694    0.100995   -0.142457
C       0.968386   -0.543741    1.033181
C       0.221497   -1.521400    1.908318
O      -0.650889   -2.329419    1.067113
C       0.442180   -2.872993    0.399992
O       0.449171   -3.781089   -0.364393
C       1.447877   -1.978709    1.095985
O       2.754177   -2.273248    1.370385
H       0.244315    2.022466    0.663588
H      -0.693567    1.703226   -0.800001
H      -1.236069    1.045174    0.765094
H      -0.029923   -0.556466   -0.721085
H       1.637541    0.090122    1.616214
H       0.010384   -1.504829    2.968311
H       2.810769   -3.184625    1.681819
