19

N       0.237857    1.203121   -0.700819
C       0.011951    0.307469    0.313588
O       0.784232    0.164128    1.240073
C      -1.300155   -0.421544    0.211182
N      -1.299339   -1.824977    0.690852
C      -2.043763   -0.836910    1.438646
C      -1.781973   -0.425426    2.889760
C      -3.270060    0.031710    2.970303
C      -3.561637   -0.718978    1.635734
H       1.142525    1.646436   -0.724054
H      -0.287358    1.169278   -1.557569
H      -1.909035   -0.189926   -0.661878
H      -1.923878   -2.378887    0.107648
H      -1.570656   -1.297975    3.514231
H      -1.004839    0.319507    3.056191
H      -3.838855   -0.293752    3.842994
H      -3.379420    1.113832    2.866841
H      -4.131758   -0.188868    0.867644
H      -4.025571   -1.697211    1.802597
