15

N      -0.061006    1.367225    0.171472
C      -0.064493   -0.025966    0.076089
C      -1.236128   -0.731117   -0.009009
N      -2.481617   -0.146133   -0.060686
C      -1.165115   -2.172305   -0.084946
N      -2.229691   -2.890986   -0.169068
N       0.152111   -2.621323   -0.036371
N       1.285920   -1.890695    0.081897
N       1.172874   -0.625671    0.126475
H       0.879960    1.733928    0.099785
H      -0.678018    1.814521   -0.496890
H      -2.589144    0.687990    0.500662
H      -3.221881   -0.829020    0.055142
H      -2.030066   -3.889577   -0.195809
H       0.334471   -3.614247   -0.059333
