23

C       0.127239    1.605745    0.069888
C       0.022327    0.075827    0.072101
C      -1.410714   -0.507328   -0.000912
C      -2.245025   -0.057677    1.217399
C      -2.148893   -0.155837   -1.288098
C      -2.642806   -1.226981   -1.913406
C      -2.248748   -2.493353   -1.232392
C      -0.754483   -2.758845   -1.220172
C      -1.395680   -2.047602   -0.057002
H       1.176718    1.915185    0.103749
H      -0.311909    2.041711   -0.833387
H      -0.372353    2.054858    0.933571
H       0.603114   -0.319355   -0.768279
H       0.498907   -0.313792    0.981433
H      -2.429755    1.020426    1.206208
H      -3.216573   -0.560480    1.219071
H      -1.730090   -0.302389    2.154485
H      -2.257520    0.868265   -1.627591
H      -3.224619   -1.207114   -2.828614
H      -2.935691   -3.330853   -1.179716
H      -0.426831   -3.778500   -1.042729
H      -0.141329   -2.204220   -1.922527
H      -1.438027   -2.579943    0.887419
