17

O       0.068626    1.413580    0.100573
C       0.030332    0.015262    0.099346
C      -0.449283   -0.789149    1.276579
C      -1.598430   -0.050961    1.970128
N      -2.382484   -0.088153    0.706203
C      -2.968308    1.137646    0.176744
C      -4.148027    1.529846    0.957520
N      -5.060923    1.855437    1.586086
C      -1.278866   -0.704359   -0.019496
H       0.762883    1.696855    0.706289
H       0.837239   -0.463649   -0.457976
H       0.097819   -1.627682    1.686094
H      -2.088671   -0.614662    2.767772
H      -1.353786    0.955139    2.332690
H      -2.266524    1.983831    0.149461
H      -3.285670    0.946360   -0.854993
H      -1.477225   -1.442526   -0.790283
