15

C      -0.221388    1.548931   -0.025462
C       0.071752    0.048536    0.009371
C       0.840210   -0.492591   -1.175363
N       0.632669   -0.189819   -2.380073
O       1.807003   -1.378295   -0.759415
C       1.912528   -1.426526    0.662387
C       0.901391   -0.413462    1.200004
O       0.805331   -0.059628    2.343539
H       0.705797    2.124564   -0.092459
H      -0.832844    1.788031   -0.897138
H      -0.746585    1.845795    0.885286
H      -0.878726   -0.503395    0.068048
H       1.282488   -0.681490   -2.996232
H       1.683516   -2.436145    1.023975
H       2.930258   -1.168392    0.973513
