21

C       0.235083    1.628938    0.199757
C       0.154570    0.100780    0.117306
C       0.653725   -0.471576   -1.209230
C       0.606828   -2.006367   -1.317388
C       0.598530   -2.259750   -2.837756
O       0.314797   -1.004450   -3.471622
C      -0.123794   -0.070721   -2.489730
C      -1.583857   -0.104348   -2.322433
C      -2.779053   -0.139905   -2.192767
H       1.256851    1.985369    0.026634
H      -0.415964    2.102254   -0.542343
H      -0.077979    1.985563    1.185729
H       0.748574   -0.340428    0.927412
H      -0.880151   -0.222434    0.279430
H       1.685836   -0.137489   -1.377508
H       1.450921   -2.486619   -0.816667
H      -0.312443   -2.381584   -0.856336
H       1.570021   -2.601110   -3.212227
H      -0.156146   -3.001976   -3.125306
H       0.167960    0.921295   -2.849793
H      -3.835980   -0.166757   -2.090898
