17

O       0.035491    1.420845   -0.152274
C       0.074299    0.024783    0.025945
C      -1.340183   -0.557881    0.094190
N      -1.948913   -0.246271   -1.236560
C      -2.573746   -1.305387   -1.560194
N      -1.931082   -2.177969   -2.562199
C      -1.625007   -2.943359   -1.230208
C      -1.446309   -2.099667    0.112496
C      -2.776773   -2.416674   -0.474472
H      -0.502662    1.557226   -0.943530
H       0.627648   -0.480598   -0.779809
H       0.592976   -0.169477    0.972419
H      -1.864577   -0.117633    0.954947
H      -2.626182   -2.797388   -2.994731
H      -1.233037   -3.952343   -1.311469
H      -1.046656   -2.676392    0.943963
H      -3.675349   -2.859050   -0.065796
