21

C       0.383590    1.548549    0.082725
C       0.004636    0.067064    0.084434
O       0.424925   -0.539427   -1.140087
C       1.222472   -1.689460   -0.877442
C       1.341443   -1.751870    0.616876
C       0.654307   -0.758678    1.178392
C       0.471829   -0.415672    2.604379
C       1.210551   -1.132074    3.706071
C       1.576074    0.289510    3.379408
H       1.470223    1.666028    0.033154
H      -0.059080    2.044093   -0.785833
H       0.017876    2.044882    0.987313
H      -1.095228   -0.009460    0.160337
H       0.738725   -2.589444   -1.292647
H       2.195580   -1.588697   -1.384029
H       1.897099   -2.527158    1.129413
H      -0.533641   -0.082384    2.851824
H       0.673271   -1.328591    4.627047
H       1.910712   -1.911421    3.427552
H       2.509610    0.461454    2.855969
H       1.293472    1.074180    4.072570
