19

O      -0.100554    1.451900   -0.067978
C       0.025885    0.090739   -0.001588
C       0.020060   -1.017942   -1.023706
C       1.259963   -1.672058   -0.416328
C       0.913521   -0.908051    0.894038
C      -0.410032   -1.547606    1.341468
C      -0.643841   -2.850252    2.039831
C      -0.973758   -1.532497    2.725632
C      -1.050600   -0.943633    0.114734
H       0.657271    1.807735   -0.546247
H      -0.291930   -0.976456   -2.059910
H       1.293591   -2.764648   -0.346307
H       2.178275   -1.302753   -0.882639
H       1.680797   -0.639420    1.618303
H      -1.470099   -3.473655    1.713030
H       0.216605   -3.406839    2.399081
H      -0.332866   -1.210906    3.540764
H      -2.019727   -1.273783    2.857519
H      -2.100735   -0.836074   -0.125376
