19

C      -0.271026    1.501583    0.063394
C       0.033634    0.010316   -0.026018
C      -1.177462   -0.874642   -0.207414
C      -1.266500   -1.833403    0.715436
C      -0.135054   -1.794192    1.715445
C       0.822847   -0.746166    1.117758
C       1.848539   -1.276339    0.068173
C       1.176691   -0.387831   -0.990426
O       1.467376   -0.049272   -2.100922
H       0.636729    2.080031    0.263427
H      -0.690733    1.862321   -0.881142
H      -0.994015    1.707179    0.859203
H      -1.880841   -0.711446   -1.016941
H      -2.065632   -2.565288    0.769319
H      -0.498343   -1.515403    2.713633
H       0.355093   -2.769705    1.832606
H       1.280283   -0.093958    1.862876
H       2.902263   -1.043084    0.243244
H       1.763774   -2.346608   -0.146741
