19

C      -0.136511    1.492777   -0.020920
C       0.033844    0.001146   -0.021208
C       0.797881   -0.783986   -1.113961
C      -0.226920   -1.849896   -0.647398
C       0.245894   -2.187612    0.792998
C       0.449582   -0.723511    1.282751
O      -1.173006   -0.754826   -0.394069
C      -0.702121   -2.915498   -1.489988
C      -1.072632   -3.822293   -2.186509
H       0.811199    1.984052    0.223109
H      -0.471643    1.848758   -0.998795
H      -0.877057    1.792914    0.727780
H       0.568272   -0.421033   -2.115843
H       1.864133   -0.989021   -0.988458
H      -0.535130   -2.718976    1.338792
H       1.156335   -2.791604    0.801225
H       1.478296   -0.501474    1.580201
H      -0.217218   -0.458510    2.106402
H      -1.406508   -4.618643   -2.804816
