16

O      -0.710953    1.802030   -1.468278
C       0.123110    1.186636   -0.859070
C       1.089045    1.804817    0.167157
O       1.885181    1.051001    0.693528
C       0.923215    3.255384    0.403928
C       0.965899    3.896662    1.758907
C       1.966851    3.249820    2.711738
C       3.028716    3.552342    1.625826
N       2.005941    4.228845    0.737201
H       0.284696    0.093674   -0.971215
H       0.211927    3.706000   -0.280256
H       0.178575    4.594414    2.029316
H       2.103959    3.827715    3.627290
H       1.797629    2.201807    2.963811
H       3.758956    4.306827    1.923496
H       3.535040    2.703528    1.169210
