17

C      -0.078460    1.512506    0.006677
N       0.010168    0.064987   -0.064137
C      -1.053443   -0.608195   -0.033124
O      -2.360673   -0.118438    0.091832
C      -3.263668   -1.163059   -0.151403
C      -2.559723   -2.291303   -0.247729
C      -2.249594   -3.662950   -0.816488
C      -0.759990   -3.150461   -0.869302
N      -1.207344   -1.984266   -0.071903
H       0.788186    1.948213   -0.499655
H      -0.991107    1.919323   -0.448964
H      -0.050470    1.855885    1.050058
H      -4.301203   -0.891810   -0.225687
H      -2.402485   -4.495052   -0.126072
H      -2.710671   -3.896392   -1.776451
H      -0.003193   -3.762016   -0.375442
H      -0.425449   -2.875832   -1.874038
