16

C       0.104869    1.547852    0.186548
C      -0.039850    0.073386    0.104851
C      -1.084125   -0.792968    0.009935
C      -2.551735   -0.519461   -0.080931
C      -3.075465   -0.724553   -1.497628
O      -3.786258    0.055051   -2.075193
N      -0.591431   -2.099099   -0.033037
C       0.688785   -1.958478    0.042717
O       1.110523   -0.678126    0.132615
H       0.685237    1.939939   -0.655890
H      -0.878628    2.021967    0.168846
H       0.615411    1.849113    1.107888
H      -3.084502   -1.228717    0.567072
H      -2.806093    0.493896    0.237659
H      -2.741805   -1.673834   -1.970526
H       1.449774   -2.722997    0.046812
