18

O       0.182542    1.373500   -0.276502
C       0.054728   -0.024404   -0.007583
C       0.826586   -0.415662    1.230768
C       0.210388   -0.742460    2.370723
C      -1.266806   -0.729978    2.514970
C      -2.106055   -0.188496    1.428545
C      -1.402958   -0.481542    0.089565
C      -1.596631   -1.978212    0.453842
N      -2.213193   -1.651503    1.784645
H      -0.025082    1.838823    0.541410
H       0.502643   -0.512622   -0.882383
H       1.910523   -0.383952    1.170454
H       0.788768   -1.008847    3.251185
H      -1.632115   -0.586347    3.527122
H      -2.924323    0.506184    1.589869
H      -1.957972   -0.156890   -0.791079
H      -2.349354   -2.477652   -0.158996
H      -0.699853   -2.603044    0.506317
