21

C       0.646252    1.512296   -0.006084
C      -0.006433    0.116944    0.001209
C       0.274773   -0.631461   -1.276275
C       0.695218   -1.891483   -1.352847
C       0.964526   -2.793030   -0.175630
C       2.321676   -3.509131   -0.311225
C       0.882128   -2.054261    1.144932
O       1.811346   -0.979777    1.332670
C       0.417785   -0.662666    1.229503
H       1.735124    1.416911   -0.033040
H       0.326633    2.088337   -0.880085
H       0.373497    2.078513    0.890499
H      -1.096189    0.259426    0.080409
H       0.110681   -0.069755   -2.193920
H       0.866710   -2.335473   -2.331609
H       0.180505   -3.566918   -0.152115
H       3.135074   -2.778849   -0.288006
H       2.474839   -4.219502    0.507781
H       2.378831   -4.062350   -1.253850
H       0.769730   -2.691664    2.023955
H      -0.021686   -0.319866    2.168092
