17

O       0.140445    1.364545   -0.111247
C       0.017540   -0.037590    0.041440
C      -1.401654   -0.517158    0.089695
C      -2.507781    0.233516    0.147752
C      -3.781035   -0.578987    0.154169
C      -3.244016   -1.967614   -0.186305
O      -3.816437   -2.879222   -0.725497
C      -1.736612   -1.991311    0.119496
O      -1.025748   -2.780658   -0.805350
H      -0.199667    1.591329   -0.983119
H       0.551215   -0.589015   -0.747863
H       0.525819   -0.285554    0.982949
H      -2.500107    1.315441    0.199312
H      -4.274773   -0.596164    1.136594
H      -4.537715   -0.261148   -0.571208
H      -1.596555   -2.387844    1.144215
H      -1.667793   -3.413673   -1.158431
