18

C      -0.059337    1.530690    0.371459
C      -0.084567    0.041854    0.012149
O       0.655656   -0.713986    0.969395
C      -1.499682   -0.535378   -0.027327
C      -2.442742    0.128239   -1.009639
C      -1.680554   -1.974920    0.285635
N      -2.113934   -0.937917    1.249725
H       0.975091    1.886802    0.445732
H      -0.555795    2.136697   -0.390748
H      -0.553934    1.704668    1.332028
H       0.360898   -0.088886   -0.988586
H       1.496584   -0.271227    1.113908
H      -2.036713    0.100534   -2.027729
H      -3.403872   -0.390771   -1.010050
H      -2.633770    1.173523   -0.746928
H      -2.489941   -2.523957   -0.188798
H      -0.802377   -2.560909    0.532209
H      -1.397976   -0.880389    1.972236
