23

C       0.073988    1.673832    0.130452
C       0.006964    0.146861    0.011665
O       0.681108   -0.345138    1.182119
C      -1.449078   -0.363829   -0.008054
C      -2.278321   -0.013182    1.222883
O      -3.483108   -0.766282    1.144005
C       0.721868   -0.362026   -1.257675
C       2.202480   -0.010023   -1.356009
O       2.740015   -0.761273   -2.438397
H       1.111547    2.013535    0.168637
H      -0.417305    2.151043   -0.722669
H      -0.414886    2.012183    1.046919
H       0.660925   -1.308201    1.146341
H      -1.958450    0.002766   -0.906703
H      -1.434665   -1.459042   -0.090276
H      -1.706053   -0.259079    2.128665
H      -2.494813    1.065272    1.249836
H      -4.018656   -0.551136    1.913053
H       0.644476   -1.457277   -1.287506
H       0.200466    0.004916   -2.149259
H       2.333638    1.068764   -1.528269
H       2.698512   -0.256737   -0.406545
H       3.673790   -0.545123   -2.515067
