17

C      -0.038214   -1.217852   -0.087188
C      -0.001523   -0.017686   -0.021426
C       0.016405    1.431257    0.047676
C      -0.289332    2.073674    1.447696
C       0.952353    1.544190    2.225131
O       2.010431    1.587724    1.259820
C       1.419494    2.098228    0.038072
C       1.042730    3.549659    0.283614
C       0.014413    3.527181    1.139451
H      -0.059216   -2.277827   -0.147136
H      -0.633817    1.861953   -0.716997
H      -1.250556    1.840129    1.902210
H       1.199019    2.173006    3.087479
H       0.807935    0.509476    2.555248
H       2.091260    1.866362   -0.785590
H       1.593960    4.407105   -0.078845
H      -0.463593    4.367851    1.626152
