23

C      -0.129681    1.520523   -0.010650
C       0.049297   -0.007716   -0.107040
C       0.815505   -0.374886   -1.297906
C       1.467470   -0.669346   -2.264684
C       0.704132   -0.581989    1.158535
C      -0.083861   -0.521140    2.496999
C       0.464891   -1.935712    2.839698
C      -0.449599   -2.936707    3.527904
C       0.793044   -2.121357    1.330872
H       0.841386    2.016563    0.081068
H      -0.627523    1.913655   -0.900792
H      -0.732663    1.777465    0.865520
H      -0.948988   -0.461654   -0.195332
H       2.032960   -0.934632   -3.123194
H       1.695182   -0.130466    1.279391
H       0.132002    0.297665    3.187970
H      -1.166196   -0.551798    2.320986
H       1.397805   -1.835902    3.406583
H      -1.389776   -3.053279    2.976457
H       0.020325   -3.924471    3.595752
H      -0.698284   -2.616593    4.546204
H      -0.027584   -2.625075    0.806727
H       1.729549   -2.614013    1.060737
