22

C      -0.058739    1.545312   -0.028761
C      -0.095585    0.030087    0.097353
C      -1.334128   -0.555630   -0.556844
O      -1.274268   -0.247366   -1.946617
N       1.199692   -0.652579   -0.095645
C       0.584894   -0.661153    1.247089
C       1.323664    0.140929    2.307251
C       0.062079   -1.974004    1.802205
O       1.186463   -2.746465    2.213409
H       0.919215    1.946016    0.234393
H      -0.275143    1.826000   -1.062334
H      -0.813917    2.009290    0.616647
H      -1.391532   -1.641898   -0.415532
H      -2.231475   -0.112673   -0.094575
H      -2.108414   -0.509956   -2.346379
H       1.064138   -1.550918   -0.555547
H       1.882992    0.966155    1.868683
H       0.624326    0.545223    3.048610
H       2.029771   -0.511994    2.825868
H      -0.604941   -1.766512    2.654966
H      -0.519686   -2.526724    1.054345
H       0.860677   -3.526963    2.670851
