20

O      -0.167547    1.484956   -0.026937
C      -0.028764    0.075484   -0.126929
C      -1.407064   -0.564900    0.057653
C      -1.336190   -2.078506   -0.153064
C      -2.707373   -2.751675   -0.277669
N      -3.624672   -2.714832    0.845934
C      -3.861038   -1.723397    1.586021
O      -3.334284   -0.471068    1.665487
C      -1.944292   -0.218996    1.445910
H       0.706469    1.881731   -0.080640
H       0.372588   -0.215272   -1.109945
H       0.666054   -0.312484    0.637004
H      -2.077303   -0.119038   -0.689860
H      -0.776338   -2.302075   -1.070709
H      -0.777562   -2.537942    0.674098
H      -3.232470   -2.314493   -1.140897
H      -2.551724   -3.807262   -0.527153
H      -4.677259   -1.795863    2.307274
H      -1.365533   -0.766523    2.204972
H      -1.828937    0.849694    1.628662
