14

O       0.031907    1.369062   -0.342092
C       0.046236    0.093151    0.264570
C      -1.344265   -0.507038    0.244545
N      -1.773761   -1.066993   -1.028889
C      -1.572933   -1.998840    0.109206
C      -0.458928   -2.916747   -0.014823
N       0.437025   -3.641185   -0.094845
C      -2.741495   -2.543519    0.764440
N      -3.695731   -2.953990    1.271289
H      -0.132917    1.238717   -1.282790
H       0.754431   -0.590515   -0.221116
H       0.369397    0.239716    1.299465
H      -2.086087    0.012246    0.847437
H      -2.770635   -0.939679   -1.190086
