16

O       0.366084    1.378134    0.077743
C       0.152595    0.047890   -0.010458
C      -0.080829   -0.682396   -1.134243
O      -0.235376   -1.989602   -0.709502
C      -0.084317   -1.946756    0.626817
N       0.148528   -0.765171    1.104774
C      -0.187060   -0.370078   -2.558931
C       0.314575   -1.332280   -3.618386
C      -1.163330   -1.103823   -3.458132
H       0.497610    1.575975    1.012472
H      -0.169362   -2.878803    1.161992
H      -0.044899    0.686998   -2.754486
H       0.815898   -0.912802   -4.483385
H       0.718298   -2.277631   -3.274361
H      -1.749435   -1.896163   -3.006777
H      -1.686044   -0.526024   -4.212074
