21

C      -0.177975    1.544699   -0.016350
C       0.071726    0.045083    0.006528
C       1.171460   -0.550354   -0.906852
O       2.416058    0.178848   -0.792040
C       2.766571   -0.539764    0.413175
C       2.071629    0.053386    1.656665
C       0.745182   -0.649809    1.239520
C      -0.152552   -1.187577    2.329769
C       1.584656   -1.530826    0.223032
H       0.766144    2.094423    0.019571
H      -0.698153    1.840945   -0.934078
H      -0.796221    1.861449    0.830963
H      -0.857841   -0.503233   -0.199374
H       0.938924   -0.795732   -1.945616
H       3.830456   -0.782845    0.448188
H       2.468011   -0.408057    2.568590
H       2.085267    1.140728    1.770518
H      -0.623365   -0.369967    2.889791
H      -0.954877   -1.810278    1.917676
H       0.409041   -1.795831    3.048119
H       1.629855   -2.615898    0.175358
