17

O       0.475455    0.387252    0.872371
C      -0.189772    0.159186   -0.370545
C      -1.510408   -0.536753   -0.171817
O      -2.427130   -0.615926   -1.300998
C      -3.125207   -1.278492   -0.197654
C      -1.855689   -1.973066    0.372325
C      -2.139661   -1.439069    1.794472
O      -1.082339   -1.232289    2.682654
C      -2.639605   -0.279607    0.895313
H       0.062187    1.148751    1.293869
H      -0.358457    1.097045   -0.915485
H       0.480637   -0.461493   -0.972311
H      -4.119306   -1.683059   -0.377249
H      -1.420147   -2.915263    0.039097
H      -2.921301   -1.967111    2.347455
H      -0.348919   -0.831928    2.189035
H      -3.095575    0.678173    1.150331
