17

C      -0.018376    1.509939    0.007844
C      -0.005264    0.010715   -0.015523
C      -0.031310   -0.694715   -1.161583
O      -0.020803   -2.045950   -1.226071
C       0.018510   -2.738253   -0.064488
C       0.047981   -2.171743    1.156153
C       0.091283   -2.980064    2.418350
C       0.037692   -0.705579    1.267956
O       0.063058   -0.124913    2.348391
H       0.869137    1.890460    0.523469
H      -0.051809    1.932221   -0.999936
H      -0.880968    1.874309    0.574848
H      -0.063516   -0.259574   -2.153402
H       0.023063   -3.805879   -0.249534
H       0.095094   -4.053934    2.213782
H       0.981541   -2.726284    3.002623
H      -0.768613   -2.741989    3.052566
