18

O      -0.070061    0.005492    0.437548
C      -0.056320    1.182146    0.213480
N      -1.082600    2.150121    0.221781
C      -0.157575    3.231171   -0.135841
C       0.971777    3.342223    0.838853
C       0.984942    2.221580   -0.202235
C       1.735193    2.403193   -1.505332
C       1.254747    3.799445   -2.011533
C      -0.182206    3.997542   -1.440389
H      -1.808997    2.208276    0.926901
H       1.701490    4.132632    0.691093
H       0.794310    3.090557    1.879008
H       2.824229    2.354447   -1.413685
H       1.434719    1.614943   -2.203488
H       1.917754    4.583176   -1.629950
H       1.280152    3.878468   -3.101832
H      -0.923403    3.524633   -2.092931
H      -0.445781    5.055892   -1.349068
