16

O       0.023095    1.297668    0.061372
C       0.035810   -0.093141   -0.044653
C      -1.350704   -0.669778    0.043899
C      -0.590936   -0.660798   -1.292669
N      -0.557148   -2.147068   -1.293629
C      -1.365870   -2.205622   -0.030730
C      -0.290183   -3.108767    0.625043
C       0.532517   -2.831738   -0.661392
O       1.656873   -3.016963   -1.018733
H       0.752306    1.642066   -0.465810
H       0.893691   -0.585561    0.414450
H      -2.174287   -0.041804    0.356738
H      -0.744456   -0.088284   -2.198873
H      -2.365172   -2.631991   -0.139229
H       0.191782   -2.743700    1.533937
H      -0.590392   -4.149052    0.771537
