21

O      -0.048358    1.400247    1.103330
C       0.059324    0.372753    0.123089
C      -1.240015   -0.254920   -0.077057
C      -2.307416   -0.784058   -0.254071
C      -3.593365   -1.428965   -0.473980
C      -4.126013   -1.340470   -1.924243
C      -5.252604   -2.395265   -1.980042
C      -4.920688   -3.437179   -0.868164
C      -3.609901   -2.953781   -0.210778
H       0.826537    1.788561    1.206269
H       0.416835    0.778578   -0.837846
H       0.787840   -0.394788    0.432942
H      -4.333014   -0.959558    0.191079
H      -4.461095   -0.333841   -2.186305
H      -3.313613   -1.602585   -2.610971
H      -6.222549   -1.927742   -1.784108
H      -5.322314   -2.854434   -2.969684
H      -5.726831   -3.471905   -0.128718
H      -4.819540   -4.450085   -1.266742
H      -2.739651   -3.402383   -0.702513
H      -3.543146   -3.195835    0.852817
