19

C       0.061232    1.532920   -0.122635
C       0.030302    0.038768    0.059280
O       1.320495   -0.640527    0.004265
C       0.590819   -0.635330    1.220639
C       1.123164   -0.228362    2.605345
C      -0.203953   -0.828352    3.158232
C       0.248766   -1.860963    2.082854
C       1.691925   -1.693551    2.684367
O       2.821354   -2.069290    1.966368
H       0.847028    1.983615    0.488368
H       0.246959    1.789622   -1.170589
H      -0.901021    1.970480    0.164930
H      -0.741663   -0.485423   -0.506462
H       1.613429    0.699430    2.898332
H      -0.176226   -1.174399    4.193829
H      -1.116690   -0.271156    2.941990
H      -0.253217   -2.779464    1.780551
H       1.811635   -2.081354    3.699563
H       2.737474   -1.742075    1.062155
