17

C       0.006288    1.339377   -0.098966
C      -0.022681   -0.113057   -0.001564
C       0.000340   -1.316094    0.095612
C      -0.060713   -2.742949    0.173377
C      -0.599076   -3.438657    1.401016
C      -1.479858   -3.361446    0.175640
O      -2.584145   -2.522047    0.170238
C      -1.649350   -4.595022   -0.641184
O      -0.833796   -5.484120   -0.700540
H       1.027280    1.717571    0.021681
H      -0.363229    1.684690   -1.070622
H      -0.612076    1.801658    0.677949
H       0.667285   -3.301956   -0.406691
H      -0.174720   -4.408191    1.635485
H      -0.904389   -2.819947    2.235914
H      -2.291573   -1.642897   -0.109150
H      -2.607390   -4.622752   -1.202417
