19

C       0.218151    1.475956    0.319019
C       0.124458   -0.004327    0.012143
C       0.544195   -0.615668   -1.317759
C       1.156573    0.194237   -2.447076
O       2.174857   -0.525798   -3.120543
C       1.351651   -0.880403   -0.080880
O       2.638556   -0.277902   -0.073079
C       3.213346   -0.085383    1.136418
O       4.303907    0.381925    1.258358
H       1.145953    1.920612   -0.045958
H      -0.616630    2.021610   -0.132263
H       0.175943    1.643983    1.400629
H      -0.727061   -0.491688    0.480877
H      -0.045479   -1.459784   -1.663486
H       0.388195    0.408194   -3.196929
H       1.529575    1.158391   -2.081666
H       2.902810   -0.620525   -2.495769
H       1.348340   -1.872375    0.361210
H       2.565472   -0.411744    1.971395
