13

O       0.059909    0.027694   -0.132528
C       0.000481    1.212390    0.018281
C      -1.106412    2.272417   -0.046050
O      -0.877815    3.127999    1.092804
C      -0.062756    3.333806   -0.057605
C       1.063455    2.316117    0.071515
C       2.371300    2.331633    0.757076
N       2.290848    2.271894   -0.711465
H      -2.101574    2.241478   -0.471668
H      -0.078815    4.293429   -0.557419
H       2.755373    3.265989    1.155900
H       2.656676    1.437263    1.304895
H       2.445654    1.318958   -1.038922
