25

C       0.127639    1.697854    0.056721
C       0.056563    0.166493    0.032379
C       0.731818   -0.441652   -1.200915
C       0.740368   -2.009769   -1.286892
C       0.626751   -2.851806   -0.024231
C      -0.478271   -1.939150   -2.248145
C      -0.131012   -0.446744   -2.495715
O      -1.177070    0.490710   -2.527695
C      -1.958496    0.413973   -3.697459
H       1.168642    2.041472    0.052909
H      -0.372936    2.120624   -0.816942
H      -0.350407    2.099796    0.956100
H       0.545155   -0.232322    0.930232
H      -0.991726   -0.148422    0.083757
H       1.718164    0.019414   -1.322285
H       1.626940   -2.325956   -1.847854
H      -0.252274   -2.576718    0.566929
H       0.536613   -3.914161   -0.277559
H       1.508989   -2.739112    0.616016
H      -0.499619   -2.619807   -3.102954
H      -1.423296   -2.023771   -1.701276
H       0.498406   -0.335075   -3.393244
H      -2.727641    1.187095   -3.628318
H      -1.354626    0.592434   -4.601578
H      -2.449534   -0.565229   -3.801436
