18

C       0.003113    1.616621    0.094570
C      -0.019650    0.094287   -0.053917
C      -1.442583   -0.507646   -0.023406
C      -1.489230   -2.054848    0.165085
O      -2.049762   -1.886904    1.500978
C      -2.075859   -0.517303    1.375503
N      -2.462671    0.373654    2.164648
C      -2.291690    0.002900   -1.085671
C      -2.982770    0.405687   -1.982611
H       1.034037    1.982565    0.097909
H      -0.526718    2.097127   -0.732639
H      -0.478222    1.922147    1.027111
H       0.451331   -0.205692   -0.997417
H       0.557431   -0.370779    0.754371
H      -2.180411   -2.589000   -0.488545
H      -0.518055   -2.553901    0.204806
H      -2.815348   -0.023473    3.037208
H      -3.602344    0.772466   -2.763477
