21

C       1.046921   -1.234911    0.131348
C       0.062846   -0.068901   -0.039008
C       0.431398    0.852729   -1.210236
N      -1.343963   -0.536398   -0.121027
C      -1.770038   -1.341173   -1.178003
N      -0.995892   -1.716238   -2.116880
C      -2.315801   -0.206706    0.838030
C      -1.900427    0.668193    2.009244
O      -3.460586   -0.603448    0.745631
H       2.049060   -0.836264    0.318454
H       0.765307   -1.859389    0.985054
H       1.076100   -1.856344   -0.763379
H       0.115283    0.529833    0.868601
H       0.438999    0.304705   -2.152136
H      -0.278807    1.681726   -1.290635
H       1.426800    1.274181   -1.037709
H      -2.826094   -1.588993   -1.079160
H      -1.517037   -2.292800   -2.775059
H      -1.539110    1.648108    1.682936
H      -2.787089    0.803861    2.627457
H      -1.113155    0.203841    2.610770
