14

C      -0.020033    1.545266    0.000977
C       0.000511    0.041252    0.001363
C      -0.045644   -0.680483   -1.140035
O      -0.029517   -2.022295   -1.186340
C       0.038268   -2.819104   -0.027396
O       0.047986   -4.011573   -0.170161
C       0.088941   -2.067944    1.211373
C       0.070808   -0.714200    1.220936
H       0.880916    1.956918    0.470041
H      -0.076568    1.939644   -1.016931
H      -0.880300    1.932851    0.558553
H      -0.100387   -0.246647   -2.132824
H       0.141634   -2.657320    2.117922
H       0.109930   -0.179465    2.166500
