17

O       0.052230    0.186546   -0.772239
C       0.094508    1.346211   -0.416750
N       1.209750    1.960370    0.037679
C       2.533873    1.406104    0.305595
C       2.934308    2.785651    0.913025
C       4.048781    3.523303    0.162555
C       4.219099    4.895624    0.638001
N       4.327955    5.977153    1.029721
C       1.480813    3.275061    0.624009
H      -0.779235    2.029655   -0.433693
H       2.526045    0.564610    1.005336
H       3.082086    1.107060   -0.595123
H       3.168672    2.743364    1.977115
H       4.999033    2.989277    0.277903
H       3.828201    3.549631   -0.911382
H       1.404984    4.112341   -0.079453
H       0.885368    3.505812    1.513330
