20

C      -0.258119    1.497242    0.012950
C       0.097403    0.004546    0.056932
C       0.806367   -0.465669   -1.183485
C       0.094806   -0.899435   -2.434214
C       0.988999   -1.889278   -1.732858
C       2.446387   -1.598477   -2.054305
O       2.782246   -1.808145   -3.410352
C       2.262205   -0.125038   -1.543983
H       0.639845    2.113576   -0.103392
H      -0.922149    1.717498   -0.829211
H      -0.761032    1.811623    0.932781
H       0.726570   -0.193440    0.935609
H      -0.816969   -0.586450    0.195066
H      -0.967713   -1.092734   -2.320153
H       0.378065   -0.509113   -3.407675
H       0.609192   -2.829027   -1.349082
H       3.122627   -2.156780   -1.392816
H       3.701459   -1.550793   -3.534465
H       2.400858    0.655092   -2.299780
H       2.888984    0.100256   -0.676283
