23

C      -0.046100    1.608639    0.170579
C      -0.094179    0.092767   -0.036699
C       0.843695   -0.393436   -1.151011
C       0.811359   -1.903744   -1.331118
C      -0.367300   -2.674484   -1.989361
C      -0.543058   -2.022021   -3.376845
C       0.966144   -2.004536   -3.779669
C       1.518780   -2.651340   -2.491526
O       0.576312   -3.751047   -2.286914
H       0.963794    1.939109    0.438127
H      -0.336264    2.142898   -0.741098
H      -0.722693    1.924587    0.970685
H       0.166207   -0.415251    0.900994
H      -1.122673   -0.212933   -0.269734
H       0.586976    0.119565   -2.085514
H       1.872678   -0.088635   -0.913628
H       1.065750   -2.411811   -0.396162
H      -1.253239   -2.998889   -1.442947
H      -1.146689   -2.653411   -4.031599
H      -1.000201   -1.029582   -3.335245
H       1.176696   -2.627945   -4.650791
H       1.361950   -1.002554   -3.965889
H       2.567243   -2.949494   -2.458152
