20

O       0.590829    0.618385    1.516151
C       0.330468    1.423101    0.645155
N       1.146416    1.754730   -0.389384
C       2.482664    1.197313   -0.559590
C       3.589772    2.143558   -0.097115
C       3.725953    2.467982    1.432521
C       5.183948    1.990041    1.380940
C       5.236917    0.554609    0.949618
C       5.034282    1.619327   -0.097368
H      -0.630686    1.974009    0.602190
H       0.835759    2.476436   -1.020260
H       2.501258    0.270071    0.016212
H       2.627156    0.938667   -1.615826
H       3.525820    3.076362   -0.668556
H       3.619523    3.534128    1.642814
H       3.064587    1.907820    2.100022
H       6.019281    2.471595    1.874059
H       6.224097    0.103334    0.947361
H       4.439922   -0.131595    1.225099
H       5.740904    1.750725   -0.908617
