12

O       0.027209    1.343998   -0.034095
C       0.052315    0.004415   -0.056855
C       0.046015   -0.658814   -1.278103
C       0.073675   -2.045648   -1.192732
O       0.070176   -2.775456   -2.316564
N       0.104272   -2.710554   -0.032078
C       0.106846   -1.954895    1.062241
N       0.082545   -0.626614    1.122571
H       0.036882    1.597451    0.900212
H       0.021455   -0.135428   -2.223193
H       0.092096   -3.701751   -2.035921
H       0.131584   -2.481581    2.013283
