21

C      -0.007494    1.458857    0.073368
C      -0.030844   -0.030229    0.027567
C      -0.017425   -0.887604   -1.002729
C       0.003783   -2.273335   -0.346574
C       0.046898   -3.520658   -1.196071
C      -1.046968   -2.053295    0.801859
C      -0.018904   -0.964061    1.241973
C       1.091441   -1.980563    0.752997
O       1.330434   -3.104749    1.564792
H       0.875064    1.830585    0.610298
H       0.004979    1.887922   -0.932902
H      -0.882172    1.858937    0.602407
H       0.016447   -0.686624   -2.065669
H       0.880732   -3.488209   -1.906886
H       0.174166   -4.408663   -0.570302
H      -0.877551   -3.637945   -1.772484
H      -2.041317   -1.709881    0.505861
H      -1.101692   -2.896143    1.494074
H      -0.009731   -0.528020    2.242283
H       2.026771   -1.528918    0.395439
H       1.952437   -2.854486    2.254751
