18

C       0.055556    0.753915   -1.322413
C       0.005988   -0.024779   -0.024529
C       1.244658   -0.640964    0.515441
N       0.646098    0.536525    1.172779
C      -1.320060   -0.708465    0.231264
C      -1.933231   -0.689368    1.574142
O      -2.406292    0.183621    0.550348
C      -1.646196   -1.778710   -0.684713
C      -1.884601   -2.667790   -1.457955
H       1.048408    1.186696   -1.480284
H      -0.174852    0.107222   -2.174502
H      -0.680693    1.564030   -1.305656
H       1.191042   -1.559108    1.093664
H       2.161985   -0.515996   -0.054040
H       1.156934    1.379627    0.922915
H      -2.612129   -1.494597    1.849359
H      -1.379031   -0.210388    2.376351
H      -2.108010   -3.453555   -2.136818
