22

C      -0.076012    1.466877   -0.076326
O       0.042625    0.065703    0.133411
C      -1.106376   -0.634094    0.053201
N      -1.113672   -1.881283    0.222040
C      -2.376414   -2.565055    0.122366
C      -2.430636   -3.800334   -0.819024
C      -3.276338   -4.542261    0.254238
C      -3.028957   -6.023293    0.493722
C      -2.753448   -3.512401    1.295162
H       0.929157    1.878539    0.021618
H      -0.459396    1.693300   -1.078906
H      -0.728141    1.932753    0.672748
H      -1.997874   -0.024153   -0.166100
H      -3.211311   -1.878701   -0.098593
H      -2.853740   -3.663165   -1.817720
H      -1.431840   -4.237852   -0.910707
H      -4.343181   -4.371635    0.068107
H      -1.966971   -6.216856    0.682255
H      -3.593318   -6.387057    1.360037
H      -3.328634   -6.623135   -0.373291
H      -1.843686   -3.870513    1.786601
H      -3.444855   -3.135913    2.053738
