22

C       0.738145    1.414238    0.081831
C       0.312721   -0.051835   -0.021767
C      -1.199751   -0.251094   -0.061331
C      -1.616675   -1.718437   -0.170432
O      -1.130142   -2.499101    0.909222
O      -1.727226    0.268798    1.190320
C      -2.968814    0.805806    1.193962
C      -3.294503    1.328849    2.570672
N      -3.690514    0.831721    0.149906
H       1.828419    1.504776    0.095343
H       0.365084    1.998249   -0.767010
H       0.350845    1.869832    0.997271
H       0.722177   -0.496554   -0.937134
H       0.720320   -0.633237    0.811475
H      -1.653087    0.313378   -0.881192
H      -2.711224   -1.771412   -0.247103
H      -1.193543   -2.149196   -1.084146
H      -1.422270   -2.058439    1.715043
H      -2.572260    2.097863    2.861235
H      -4.299936    1.751204    2.602038
H      -3.221871    0.524024    3.308598
H      -4.579957    1.286056    0.341300
