18

N       0.160084    1.444968    0.000523
C       0.043124    0.048293    0.014368
C      -1.104333   -0.715240   -0.015468
C      -2.552329   -0.360055   -0.058783
C      -3.081909   -0.145137   -1.481080
O      -4.460762    0.174851   -1.382502
N      -0.632064   -2.024230   -0.067261
C       0.722185   -1.978458   -0.059122
N       1.166437   -0.739726   -0.009475
H       1.090776    1.717400    0.292032
H      -0.528811    1.908585    0.579931
H      -3.161257   -1.134479    0.424585
H      -2.731097    0.560019    0.510029
H      -2.507993    0.661589   -1.960400
H      -2.921186   -1.059354   -2.075046
H      -4.787412    0.377924   -2.263674
H      -1.202871   -2.852650   -0.071208
H       1.334492   -2.867173   -0.083980
