16

C       0.073233    1.382041    0.149952
N       0.062923   -0.064128    0.086005
N       0.089878   -0.702369   -1.108157
C       0.027037   -1.994219   -0.805420
C      -0.057401   -2.218527    0.584700
C      -0.031737   -0.943028    1.112382
O      -0.110985   -0.462230    2.380981
C       0.537410   -1.158425    3.362571
N       0.331834   -0.846881    4.562086
H       0.860994    1.762560   -0.502650
H      -0.888036    1.790678   -0.175690
H       0.263073    1.686396    1.179264
H       0.038672   -2.728640   -1.597514
H      -0.151464   -3.149708    1.117290
H       1.199414   -1.933116    2.961965
H       0.899022   -1.427112    5.176866
