25

C      -0.086536    1.488242    0.226590
C       0.227460   -0.009239    0.142953
C       0.714475   -0.490437   -1.243207
C       2.145273    0.010298   -1.504626
C       0.553643   -2.033542   -1.368376
C      -0.925751   -2.401604   -1.614992
O      -1.215988   -3.771020   -1.427368
C       1.434630   -2.648651   -2.468506
O       1.271277   -4.068718   -2.597652
H       0.789001    2.109601    0.014565
H      -0.870691    1.766146   -0.486600
H      -0.439993    1.755836    1.227308
H       0.992974   -0.267833    0.887607
H      -0.669546   -0.566107    0.433156
H       0.063047   -0.035047   -2.005196
H       2.471965   -0.171636   -2.532067
H       2.214278    1.088429   -1.335198
H       2.862596   -0.473812   -0.831031
H       0.851404   -2.489080   -0.410782
H      -1.574203   -1.855802   -0.923113
H      -1.197692   -2.066791   -2.632864
H      -0.597030   -4.245411   -1.999368
H       1.155470   -2.240942   -3.447137
H       2.493311   -2.417315   -2.305890
H       1.640192   -4.475374   -1.805857
