17

C       0.284880    1.486722    0.118679
C       0.093427    0.004160    0.028646
C      -0.053186   -0.767069   -1.105483
N      -0.202033   -2.050247   -0.692690
N      -0.161405   -2.177782    0.645722
C       0.017459   -0.936684    1.090874
C       0.100451   -0.681391    2.573842
C       1.373949   -0.101766    2.999922
C       2.418742    0.380540    3.347033
H       1.190012    1.737641    0.680909
H       0.366744    1.934699   -0.875545
H      -0.553690    1.974422    0.630503
H      -0.060630   -0.500662   -2.151227
H      -0.328460   -2.872153   -1.257452
H      -0.714939   -0.014101    2.885758
H      -0.064110   -1.634705    3.087367
H       3.344157    0.796941    3.658978
