16

O      -0.017292    0.074314    0.049453
C      -0.034718    1.272876    0.005126
C      -1.265447    2.179796    0.062136
C      -0.869202    3.403816   -0.779815
C       0.653004    3.559958   -0.599053
O       0.956406    4.422930    0.533515
C       1.600629    3.640930    1.428011
N       1.815437    2.416808    1.171234
C       1.209519    2.181341   -0.155817
H      -2.157739    1.654040   -0.279934
H      -1.425791    2.460879    1.110864
H      -1.078233    3.216505   -1.838728
H      -1.390370    4.321025   -0.498422
H       1.136476    4.000228   -1.472947
H       1.903687    4.150344    2.336167
H       1.933541    1.716300   -0.828000
