20

C       0.189984    1.614023    0.156108
C      -0.079440    0.116193   -0.078621
C       0.650862   -0.448153   -1.261082
C       0.095935   -0.846996   -2.465746
N      -1.231734   -0.875362   -2.960686
N       1.107229   -1.280644   -3.278209
C       2.316060   -1.180434   -2.622347
C       2.061930   -0.661580   -1.371091
N       3.006729   -0.315722   -0.377472
H       1.260039    1.795523    0.291342
H      -0.138434    2.206501   -0.703972
H      -0.338446    1.978223    1.043865
H       0.188392   -0.437511    0.833624
H      -1.156273   -0.045330   -0.213384
H      -1.802365   -1.564543   -2.480144
H      -1.691399    0.021707   -2.848089
H       0.958524   -1.596006   -4.220211
H       3.240729   -1.473048   -3.092537
H       3.906932   -0.748132   -0.547338
H       2.697151   -0.590715    0.548202
