20

C       0.619429    0.667154    1.222547
N       0.276764   -0.661833    0.736624
C       0.192657   -1.678986    1.775326
C       0.442697   -0.901819   -0.604561
O       0.887056   -0.047023   -1.359541
C       0.043670   -2.257554   -1.168888
O      -0.988078   -2.981735   -0.547704
C       0.195733   -2.426224   -2.660742
C       1.157967   -3.110996   -1.726110
H       1.642702    0.698403    1.622347
H       0.549204    1.377008    0.400786
H      -0.070681    0.947312    2.025536
H       1.150023   -1.761126    2.309623
H      -0.572699   -1.396620    2.508451
H      -0.074342   -2.643174    1.355022
H      -1.814923   -2.515437   -0.714022
H      -0.554673   -3.044597   -3.139507
H       0.543286   -1.564435   -3.214443
H       2.168555   -2.725906   -1.657533
H       1.050038   -4.179029   -1.574565
