19

C       0.098137    1.591003    0.221925
C       0.012860    0.073713    0.040354
C       0.706861   -0.683193    1.173109
C       0.653268   -2.183101    1.043659
N       0.085398   -2.777467    0.082831
O       1.306498   -2.745927    2.115085
C       1.359791   -4.159319    2.168045
C       2.088699   -4.547093    3.376053
N       2.658340   -4.891282    4.318937
H       1.138728    1.934037    0.245888
H      -0.403987    2.112795   -0.598103
H      -0.375051    1.910054    1.157542
H      -1.033507   -0.243526   -0.013987
H       0.461522   -0.219861   -0.914097
H       1.763639   -0.394312    1.246185
H       0.270238   -0.418455    2.145127
H       0.129068   -3.793172    0.127581
H       0.351789   -4.595245    2.202801
H       1.876267   -4.571976    1.290384
