20

N       0.060971   -1.224757    0.418705
C       0.044613   -0.082983    0.236002
C       0.028345    1.365172    0.002180
C      -0.675670    2.108227    1.166593
C       0.439368    2.260459    2.210883
C       1.685006    2.621015    1.374690
C       1.454321    1.966101    0.000334
C       2.566984    1.305377   -0.767800
C       1.987100    2.607494   -1.257973
H      -0.480210    1.534535   -0.951912
H      -0.994264    3.090927    0.801711
H      -1.558330    1.580439    1.533538
H       0.207477    3.008237    2.973205
H       0.590671    1.304405    2.724104
H       1.763673    3.708625    1.264062
H       2.610597    2.278024    1.845431
H       3.557448    1.317847   -0.324963
H       2.339797    0.399116   -1.319620
H       1.369012    2.588457   -2.150279
H       2.580967    3.509449   -1.147613
