16

C       0.070433    1.496739    0.094601
C      -0.000930    0.010550    0.011451
C      -0.051681   -0.744344   -1.107366
C      -0.100615   -0.254839   -2.437823
N      -0.154036    0.126856   -3.531039
C      -0.008956   -2.205418   -0.767420
O       1.197616   -2.580962   -0.077159
C       0.036214   -2.285026    0.700846
C       0.004871   -0.866007    1.250525
H       1.011228    1.810614    0.563800
H       0.006434    1.961161   -0.891735
H      -0.738139    1.890391    0.722668
H      -0.435085   -2.957162   -1.422954
H      -0.375808   -3.114053    1.268542
H       0.868948   -0.655329    1.892128
H      -0.892470   -0.688414    1.857815
