17

O      -0.618727    0.673320    0.414432
C       0.267401    0.968888   -0.350516
C       1.339687    1.985574   -0.087846
C       1.160985    3.472706   -0.580438
C       0.119136    3.665834    0.556351
C       1.317814    2.877220    1.200286
C       2.263941    3.854926    0.451201
C       1.416086    2.400817    2.611490
O       2.271188    2.762543    3.381984
H       0.352094    0.467801   -1.342500
H       2.315581    1.556067   -0.347342
H       1.082317    3.800016   -1.617067
H      -0.009250    4.688743    0.916944
H      -0.830671    3.140299    0.476525
H       3.277454    3.500493    0.251231
H       2.257701    4.888877    0.801176
H       0.627726    1.676547    2.909194
