17

C       0.150639    1.442685   -0.139341
N      -0.215743    0.070305    0.176076
C       0.505363   -0.688062    1.084869
C       0.611497   -2.048828    1.026835
C       1.309344   -2.826008    2.038676
O       1.412620   -4.050541    2.008605
C       1.901878   -2.006054    3.108911
C       1.779809   -0.665324    3.114087
N       1.099426   -0.000814    2.116524
H       1.213460    1.568329   -0.393133
H      -0.447643    1.770891   -0.991228
H      -0.092326    2.120677    0.688220
H      -0.497934   -0.473346   -0.624604
H       0.161381   -2.585531    0.199216
H       2.447347   -2.512402    3.895317
H       2.201015   -0.025152    3.880178
H       0.966278    0.992138    2.192200
