12

O      -0.134507    1.345965    0.069117
N       0.035829   -0.050742    0.038345
C      -1.079669   -0.638148   -0.034451
C      -2.541381   -0.258272   -0.131099
N      -2.844819   -1.692519   -0.419322
C      -1.441200   -2.105049   -0.108983
H       0.775052    1.660650    0.106793
H      -2.948212    0.136438    0.810120
H      -2.811425    0.429537   -0.939743
H      -3.529670   -2.094096    0.210048
H      -0.964830   -2.690785   -0.902612
H      -1.308889   -2.635174    0.844174
