17

C      -0.075468    1.491391   -0.033081
C       0.025459   -0.019853   -0.000254
O       1.093894   -0.603207    0.011268
C      -1.243489   -0.770754    0.017621
C      -1.373475   -2.139930    0.047698
N      -2.720913   -2.373102    0.054461
C      -3.363249   -1.155977    0.028588
C      -4.848706   -1.020517    0.027347
N      -2.492842   -0.175948    0.006005
H       0.926870    1.920681   -0.044134
H      -0.638131    1.814805   -0.914572
H      -0.635065    1.852932    0.835467
H      -0.639385   -2.927083    0.064103
H      -3.162721   -3.277879    0.074722
H      -5.299852   -1.465163    0.921810
H      -5.100458    0.040208    0.005497
H      -5.301729   -1.501988   -0.846882
