19

C       0.060053    1.494337   -0.046404
C       0.007133   -0.011160   -0.050265
O       0.649917   -0.551654   -1.186524
C      -0.007446   -1.799302   -1.484947
C      -0.734025   -2.143115   -0.185859
C       0.342437   -2.213422    0.940758
C       0.269090   -0.729471    1.335150
O      -1.154546   -0.583461    1.626187
C      -1.329173   -0.746269    0.204011
H       1.098292    1.840191   -0.023496
H      -0.411013    1.899247   -0.946917
H      -0.458526    1.880908    0.834311
H      -0.694459   -1.664022   -2.333952
H       0.748942   -2.538504   -1.766995
H      -1.427727   -2.980391   -0.247010
H       0.048402   -2.844652    1.781545
H       1.321821   -2.528346    0.571944
H       0.923067   -0.336978    2.114342
H      -2.303559   -0.444776   -0.179803
