23

C       0.119883    1.631908   -0.022879
C      -0.006951    0.102665   -0.003799
C       0.695953   -0.480661   -1.237838
O       0.460100   -1.853795   -1.466425
C       1.162977   -2.742881   -0.618109
C       0.548981   -2.949438    0.758251
C       0.277881   -4.380690    1.139801
C       0.281559   -1.932967    1.581374
C       0.542295   -0.467996    1.320001
H       1.169677    1.943280    0.041915
H      -0.295655    2.055840   -0.943066
H      -0.409711    2.082715    0.822185
H      -1.067760   -0.167778   -0.079330
H       0.333195    0.030521   -2.136748
H       1.782130   -0.288195   -1.165707
H       1.185851   -3.697876   -1.153230
H       2.210403   -2.407449   -0.512236
H       1.193033   -4.985961    1.089550
H      -0.123051   -4.461562    2.153547
H      -0.437600   -4.845104    0.448560
H      -0.156997   -2.168016    2.549584
H       1.626809   -0.273320    1.352872
H       0.118341    0.112843    2.146547
