18

C      -0.125997    0.746597   -0.441848
O      -0.516057   -0.267910    0.482471
C       0.488376   -0.633137    1.371234
C       0.323858   -2.028218    1.892346
O      -0.782500   -2.757866    1.434627
C       1.483028   -1.713658    0.959289
C       1.585198   -2.164026   -0.484411
N       0.849406   -3.257009   -0.811393
O       2.322428   -1.590769   -1.267814
H       0.751918    0.436606   -1.017691
H      -0.975016    0.906418   -1.109413
H       0.095942    1.684015    0.086417
H       0.830055    0.165327    2.029563
H       0.550592   -2.241352    2.932535
H      -1.331642   -2.128552    0.943870
H       2.462867   -1.629948    1.419736
H       0.144114   -3.595696   -0.172376
H       0.842508   -3.542357   -1.777349
