20

C      -0.611886    1.425509    0.341488
N      -0.121011    0.076696    0.116756
C       0.349956   -0.310436   -1.208123
C       1.672927    0.311571   -1.572308
C       1.638917   -0.877746   -0.633244
C       2.352788   -2.172733   -0.884894
C       1.124624   -0.431910    0.759279
C       2.036271    0.507701    1.512903
O       2.619115    0.193964    2.521640
H       0.046919    2.230247   -0.025206
H      -1.578084    1.535114   -0.162797
H      -0.776918    1.579430    1.412979
H      -0.336112   -0.724532   -1.940214
H       2.035270    0.070159   -2.567518
H       1.935375    1.312220   -1.243453
H       2.389082   -2.396341   -1.955924
H       3.385769   -2.135154   -0.520171
H       1.851514   -3.007256   -0.382881
H       0.912854   -1.282815    1.416927
H       2.176924    1.516015    1.066875
