16

C      -0.017490    1.489829    0.083729
C      -0.005509    0.000810   -0.052155
N      -0.061542   -0.600487   -1.175513
C      -0.045541   -2.013935   -1.222351
O      -0.097896   -2.606671   -2.279308
C       0.037576   -2.713155    0.075342
C       0.057812   -4.210147    0.084445
C       0.090976   -1.966277    1.186048
O       0.071918   -0.604827    1.167176
H       0.889853    1.831057    0.592156
H      -0.079500    1.940903   -0.905018
H      -0.870277    1.807786    0.691901
H       0.906463   -4.581757   -0.498434
H       0.121521   -4.609519    1.100263
H      -0.842051   -4.604826   -0.397785
H       0.153691   -2.345037    2.199311
