19

C      -0.002873    1.752296    0.434702
C      -0.250333    0.257148    0.209118
C       0.736921   -0.626433    0.974257
C       0.681643   -2.176908    0.762783
C       2.192631   -2.177616    0.486070
C       3.257894   -3.053304    1.003735
O       2.902636   -3.040445   -0.376403
C       2.193912   -0.654955    0.448769
O       2.973075    0.178063    0.084688
H       1.012899    2.025796    0.137525
H      -0.706682    2.357065   -0.144932
H      -0.126495    2.016551    1.490899
H      -1.270088   -0.009050    0.513973
H      -0.179096    0.026325   -0.861455
H       0.731071   -0.363424    2.039400
H       0.343682   -2.773730    1.611216
H       0.106662   -2.453993   -0.125252
H       4.232183   -2.628822    1.240154
H       2.975925   -3.949169    1.555446
