19

O      -0.248667    1.416471   -0.556581
C      -0.035136    0.148460    0.057357
C      -1.357131   -0.576622    0.048161
C      -1.943988   -1.310268   -1.124844
C      -0.874832   -2.078045   -1.909597
C      -0.544550   -2.909411   -0.611944
C       0.823617   -3.010723   -0.133554
C       1.956773   -3.114430    0.258160
C      -1.575628   -2.060403    0.163796
H       0.579387    1.904329   -0.520310
H       0.739745   -0.423037   -0.467232
H       0.304662    0.263971    1.098962
H      -2.119767   -0.022863    0.593250
H      -2.928354   -1.069417   -1.506289
H      -1.281630   -2.712165   -2.698974
H      -0.057545   -1.483497   -2.324977
H      -0.945069   -3.920366   -0.737813
H       2.955265   -3.201693    0.608539
H      -2.221556   -2.473753    0.929492
