21

C      -0.217846    1.499835   -0.060714
C      -0.023306   -0.008924    0.053201
C       1.106747   -0.583602   -0.854757
C       2.050080   -0.601402    0.377392
C       0.803298   -0.459317    1.296519
C       3.005798   -1.782530    0.581883
N       3.767405   -1.601924    1.821110
C       2.284051   -3.075919    0.532151
N       1.735621   -4.094482    0.535218
H       0.732559    2.036357    0.042195
H      -0.646423    1.769032   -1.032223
H      -0.893064    1.870126    0.718355
H      -0.988284   -0.511611   -0.053649
H       0.873790   -1.592723   -1.206536
H       1.418811    0.023183   -1.709273
H       2.670067    0.297406    0.420838
H       0.873585    0.246536    2.128581
H       0.464979   -1.427136    1.679341
H       3.723155   -1.789072   -0.248807
H       3.130750   -1.607678    2.613706
H       4.404250   -2.381119    1.959848
