19

C      -0.209725    1.461414    0.151373
C       0.115916    0.011990   -0.001333
O      -0.777912   -0.952920    0.573158
C       0.607071   -1.006991    0.952006
C       1.377924   -1.739860   -0.173462
O       0.974738   -3.022902   -0.566817
C      -0.139902   -2.912227   -1.461602
C      -0.029409   -1.532641   -2.159111
C       0.814429   -0.693394   -1.189971
H       0.669608    2.080631   -0.053593
H      -0.999261    1.758916   -0.548347
H      -0.558978    1.669886    1.166110
H       0.825687   -0.945042    2.012993
H       2.459992   -1.732627   -0.014973
H      -0.073851   -3.750031   -2.163134
H      -1.078161   -2.987963   -0.904337
H       0.489256   -1.626277   -3.117442
H      -1.016632   -1.104402   -2.350190
H       1.570189   -0.074406   -1.675982
