20

N      -0.115712    1.338371   -0.141864
C      -0.047679    0.082233   -0.041846
O      -1.169550   -0.660320   -0.094259
C      -0.996715   -2.076766   -0.034600
C      -2.377316   -2.710529    0.049500
C      -2.314085   -4.240317    0.098360
C      -3.707586   -4.883949    0.202624
C      -3.635845   -6.392555    0.134342
O      -4.068775   -7.145177    0.967453
H       0.815591    1.742971   -0.071525
H       0.867217   -0.511961    0.095791
H      -0.463743   -2.425963   -0.930454
H      -0.392727   -2.346123    0.843434
H      -2.887233   -2.323391    0.939007
H      -2.966021   -2.384520   -0.815889
H      -1.805451   -4.617718   -0.799180
H      -1.705845   -4.560158    0.954195
H      -4.215015   -4.598223    1.128509
H      -4.323336   -4.543647   -0.642917
H      -3.125261   -6.782778   -0.778749
