19

O       0.325841    1.368986   -0.629431
C       0.128405    0.085617   -0.111569
C       0.508747   -1.117079   -1.030495
C      -0.980203   -1.589527   -1.021758
C      -1.321632   -0.485833    0.004670
C      -1.017032   -0.889455    1.491197
C       0.354235   -0.134863    1.401705
C      -1.972428   -0.321196    2.502181
O      -2.564488   -0.959290    3.334584
H       1.272013    1.504421   -0.755739
H       0.864443   -0.795176   -2.011849
H       1.231686   -1.818425   -0.604761
H      -1.473656   -1.436249   -1.984110
H      -1.165029   -2.617040   -0.699181
H      -2.208973    0.127569   -0.157508
H      -0.939843   -1.967109    1.649072
H       1.240041   -0.690067    1.721847
H       0.319002    0.823007    1.930939
H      -2.105214    0.785234    2.426146
