14

O      -0.108926    1.487849   -0.002499
C       1.380636    1.237268   -0.030718
C       1.306638    0.110658    1.022814
C       1.746931   -1.098458    0.134714
C       0.544371   -2.076477    0.246992
C      -0.568335   -1.322108    0.225031
C       0.057171    0.052030    0.101066
C       1.245824   -0.034768   -0.895820
H       2.005431    2.123291   -0.117679
H       1.285308    0.202471    2.108794
H       2.754786   -1.510516    0.134002
H       0.614844   -3.152029    0.326316
H      -1.608626   -1.601730    0.279189
H       1.155716   -0.107426   -1.979719
