17

N       0.045812    1.293495    0.188178
C      -0.049960   -0.069699    0.061656
N      -1.162555   -0.705416    0.088833
C      -0.995598   -2.159132   -0.004540
C       0.035909   -2.508360   -1.117353
C       1.104375   -2.087156   -0.083702
O       1.175880   -0.645361   -0.036913
C       0.108496   -2.588669    1.011226
O       0.126730   -2.039439    2.289568
H       0.884455    1.705922   -0.189490
H      -0.809593    1.785513   -0.016709
H      -1.968296   -2.650479    0.010417
H       0.083463   -3.577693   -1.333155
H      -0.016491   -1.932697   -2.042684
H       2.134312   -2.437373   -0.131333
H       0.180552   -3.676375    1.096744
H      -0.358353   -1.205152    2.245729
