17

C       0.016472    1.526653    0.149968
C       0.035905    0.044699    0.013627
C       0.008005   -0.784221   -1.080561
O      -0.030617   -0.396310   -2.379203
N       0.016445   -2.105300   -0.730983
C       0.055314   -2.103595    0.588931
C       0.121667   -3.302972    1.477669
O      -0.251751   -2.887337    2.786929
N       0.076102   -0.843982    1.083560
H       0.909945    1.915458    0.655509
H      -0.020319    1.974715   -0.845675
H      -0.858071    1.886379    0.707552
H      -0.055069   -1.208018   -2.899120
H      -0.547368   -4.080154    1.081881
H       1.141692   -3.719893    1.474815
H      -0.017507   -3.586702    3.402842
H       0.058030   -0.625736    2.065948
