17

C       0.042414    1.496712    0.062767
C       0.014748    0.006260   -0.021451
C      -0.039024   -0.785341   -1.105498
C      -0.039571   -2.263148   -0.795912
C      -0.021801   -2.285717    0.724699
C      -0.615695   -3.318088    1.588453
O       0.793747   -3.232182    1.416567
C       0.050000   -0.840881    1.196240
O       0.110258   -0.474510    2.347739
H       0.945394    1.834198    0.582925
H       0.012497    1.960581   -0.926189
H      -0.805552    1.864918    0.650496
H      -0.082319   -0.421946   -2.127637
H      -0.914035   -2.767588   -1.224233
H       0.846462   -2.766171   -1.201479
H      -0.981174   -3.024577    2.571111
H      -1.097245   -4.180087    1.127956
