23

C       0.190653    1.332014    0.291916
O       0.361749   -0.057309    0.130810
C       0.728680   -0.536657   -1.168166
C      -0.226315   -0.050532   -2.257937
C       2.211023   -0.231221   -1.462036
O       2.988799   -1.228851   -0.812105
C       2.132529   -2.252662   -0.308651
C       0.788183   -2.077699   -1.022518
C      -0.399129   -2.732296   -0.322801
H       1.068137    1.910056   -0.031348
H      -0.689537    1.712433   -0.244534
H       0.043858    1.504401    1.361298
H      -0.134685    1.025430   -2.435117
H      -0.013681   -0.558746   -3.202666
H      -1.263684   -0.260159   -1.980093
H       2.400354   -0.255508   -2.545785
H       2.510816    0.757118   -1.095257
H       2.597078   -3.225041   -0.506246
H       2.008654   -2.141050    0.778032
H       0.885135   -2.485488   -2.036800
H      -0.543957   -2.305830    0.671649
H      -1.324383   -2.591450   -0.890752
H      -0.238881   -3.810683   -0.219964
