23

C       0.172634    1.621488    0.007543
C      -0.019996    0.092290   -0.014273
C       0.529506   -0.490148   -1.323670
C       0.293052   -1.993644   -1.540444
C       1.215081   -2.920289   -0.780765
C       1.676647   -4.134537   -1.541484
C       1.607845   -2.714560    0.487848
C       1.242641   -1.650323    1.417756
C       0.556163   -0.510685    1.240964
H       1.236751    1.881135   -0.018288
H      -0.311768    2.090837   -0.854692
H      -0.255518    2.060795    0.914274
H      -1.107528   -0.087784    0.002088
H       0.060926    0.054913   -2.151832
H       1.604917   -0.283274   -1.387134
H      -0.750874   -2.240265   -1.295398
H       0.395428   -2.209828   -2.610648
H       2.250819   -3.848773   -2.433374
H       2.301224   -4.790056   -0.929114
H       0.821020   -4.720124   -1.904713
H       2.266011   -3.466053    0.920444
H       1.577766   -1.841546    2.436052
H       0.392679    0.094571    2.132002
