18

C      -0.164872   -1.169728   -0.671965
C      -0.134506   -0.051360   -0.232070
C      -0.081123    1.295846    0.313449
C      -0.345416    1.389453    1.834651
C       0.128396    2.804715    2.178255
C       1.436528    2.972446    1.348096
C       1.300277    1.989107    0.134804
C       1.678667    4.355043    0.947798
N       1.858856    5.450905    0.626104
H      -0.198244   -2.155295   -1.065912
H      -0.839191    1.908083   -0.192696
H      -1.392831    1.212335    2.088924
H       0.256962    0.637701    2.356976
H      -0.612821    3.539935    1.849398
H       0.299597    2.965052    3.244713
H       2.288733    2.661482    1.960687
H       2.098362    1.244904    0.171214
H       1.374523    2.502920   -0.824481
