20

C      -0.381124    1.308562   -0.247409
N      -0.039945   -0.105214   -0.299949
C       1.099726   -0.515009    0.507825
C      -0.827974   -0.943871   -1.035714
O      -1.749986   -0.549644   -1.734057
C      -0.501862   -2.446988   -0.990449
C       0.556647   -2.775446   -2.048227
C       0.048415   -2.882223   -3.468036
O       1.721892   -2.910277   -1.749254
H       0.444456    1.918097   -0.634097
H      -1.269337    1.472524   -0.854464
H      -0.578982    1.616654    0.786868
H       0.832620   -0.610880    1.569674
H       1.525882   -1.450723    0.150138
H       1.879433    0.249799    0.428239
H      -0.146466   -2.779463   -0.015356
H      -1.442078   -2.946108   -1.231015
H      -0.522040   -3.812900   -3.576634
H      -0.645163   -2.061806   -3.679011
H       0.881545   -2.887188   -4.171592
