23

C      -0.225546    1.578074   -0.043563
C       0.044233    0.072538   -0.018693
C       0.770995   -0.503546   -1.267088
C       2.169932    0.119022   -1.389141
O       2.891211   -0.418861   -0.263027
C       1.982647   -1.315243    0.399444
C       1.172327   -1.905382   -0.760485
C       0.932592   -0.481869    1.171745
C       1.556049    0.547438    2.114437
H       0.689773    2.176100   -0.047687
H      -0.802833    1.848553   -0.934794
H      -0.810514    1.885542    0.829031
H      -0.932177   -0.423861    0.032796
H       0.187046   -0.456100   -2.188397
H       2.670221   -0.179941   -2.320588
H       2.174011    1.213107   -1.340062
H       2.574693   -1.998598    1.011085
H       0.322185   -2.512975   -0.439929
H       1.789041   -2.472523   -1.462522
H       0.324764   -1.169688    1.772324
H       2.257040    1.197530    1.586001
H       0.794703    1.170222    2.593702
H       2.115285    0.041709    2.909311
