16

O      -0.134815    1.433577   -0.302346
C       0.008821    0.034503   -0.160805
C      -1.300575   -0.596430    0.265248
O      -2.318814   -0.405308   -0.779991
C      -2.442547   -1.763706   -0.984206
N      -3.128995   -2.417213   -1.797798
C      -1.471835   -2.140834    0.137459
C      -0.323301   -2.959368   -0.188511
C       0.634068   -3.637226   -0.447474
H      -0.814950    1.579500   -0.970091
H       0.363082   -0.442093   -1.086138
H       0.766007   -0.135446    0.611405
H      -1.657877   -0.167153    1.204420
H      -3.677972   -1.807764   -2.406175
H      -2.012772   -2.561615    0.990847
H       1.474246   -4.241586   -0.686463
