11

N      -0.078058    1.276172    0.346152
C      -0.040251    0.075471   -0.041139
O       1.149880   -0.533740   -0.425679
C       1.215773   -1.835281   -0.848976
O       2.253836   -2.331826   -1.174810
N       0.003787   -2.491765   -0.863418
N      -1.206651   -1.991163   -0.510056
C      -1.227469   -0.769839   -0.118686
H       0.850766    1.700189    0.331548
H       0.008951   -3.451795   -1.169679
H      -2.177445   -0.339467    0.170601
