16

N       0.022660    1.233263   -0.196352
C      -0.001611   -0.020645   -0.101722
O       1.057365   -0.898572   -0.175570
C       0.389524   -2.183648    0.031397
C      -0.839243   -2.073581   -0.895936
C      -1.189381   -0.932316    0.117906
C      -0.544932   -1.876355    1.220498
C      -2.553549   -0.339750    0.275859
O      -3.547263   -0.839703   -0.189339
H       0.974515    1.574024   -0.342445
H       1.128184   -2.980661    0.009136
H      -0.661442   -1.793576   -1.935367
H      -1.531666   -2.911749   -0.820680
H      -1.207495   -2.700565    1.486772
H      -0.104564   -1.407969    2.102308
H      -2.592250    0.592639    0.875792
