24

C       0.324363    1.333607    0.397497
C      -0.190227   -0.031422   -0.061230
O      -1.608375   -0.037096   -0.232707
C       0.516259   -0.546883   -1.322787
C       0.228597    0.295523   -2.554132
N       1.896753   -1.018265   -1.068865
C       0.856243   -2.004705   -1.448705
C       0.487424   -3.003606   -0.362038
C       0.940866   -2.672804   -2.811293
H       1.407740    1.300045    0.541901
H       0.102165    2.120798   -0.333037
H      -0.149232    1.611917    1.343083
H      -0.005793   -0.740033    0.747205
H      -1.854107    0.767864   -0.699583
H       0.541419    1.333798   -2.397723
H       0.749536   -0.063223   -3.442367
H      -0.843110    0.296752   -2.779576
H       2.486699   -0.806439   -1.871450
H       0.686049   -2.616212    0.637037
H      -0.570455   -3.279715   -0.427574
H       1.081892   -3.916653   -0.478792
H       1.673874   -3.487276   -2.777741
H      -0.023030   -3.114296   -3.088961
H       1.241623   -1.994832   -3.611868
