16

O      -0.088858   -0.018710    0.119077
C      -0.022433    1.187853    0.159043
C       1.227290    1.953102   -0.016993
C       1.184558    3.287709    0.046523
C       2.381925    4.160797   -0.116389
N       3.593912    3.403339   -0.349890
C       3.748543    2.045515   -0.433744
O       4.836863    1.544026   -0.636855
C       2.499136    1.193891   -0.261245
H      -0.926191    1.813515    0.336248
H       0.240869    3.797313    0.225429
H       2.201485    4.862464   -0.946967
H       2.489520    4.790177    0.781952
H       4.455665    3.915221   -0.472267
H       2.688192    0.488524    0.555985
H       2.403468    0.560496   -1.150510
