20

C      -0.035113    1.635760   -0.027562
C      -0.035901    0.093210    0.018205
C       0.686296   -0.536828   -1.151367
C       1.744072   -1.257710   -0.782830
C       1.949079   -1.281696    0.715392
C       3.294077   -0.685980    1.170804
C       0.735293   -0.490915    1.194810
N       0.459509   -0.429294    2.434590
O      -0.718534    0.307483    2.673467
H       0.987653    2.022624   -0.069982
H      -0.564531    1.987662   -0.919160
H      -0.527579    2.044544    0.856090
H      -1.082258   -0.236868    0.078832
H       0.363648   -0.375232   -2.174502
H       2.416194   -1.775997   -1.458246
H       1.890627   -2.308310    1.101720
H       3.407765    0.342261    0.813611
H       3.354200   -0.679817    2.262306
H       4.130551   -1.274971    0.780191
H      -0.797988    0.254013    3.631520
