20

C       0.086350    1.520895    0.144203
C       0.109506    0.039781   -0.039637
C       0.266129   -0.734509   -1.162002
C       0.213430   -2.108681   -0.771254
C       0.313963   -3.281761   -1.687238
O      -0.947073   -3.497928   -2.329654
C       0.019489   -2.136863    0.596005
C      -0.130524   -3.270377    1.556332
N      -0.038522   -0.829167    1.021521
H       0.883368    1.870836    0.813119
H       0.225594    2.015404   -0.819819
H      -0.865847    1.873427    0.561287
H       0.401452   -0.363351   -2.167415
H       1.096306   -3.094492   -2.439610
H       0.619950   -4.177988   -1.125022
H      -0.823944   -4.200170   -2.977002
H       0.617530   -3.234881    2.358874
H      -1.119557   -3.278387    2.032115
H      -0.013776   -4.224818    1.039147
H      -0.164010   -0.546802    1.978750
