14

O       0.052867   -0.011104   -0.468258
C       0.047948    1.131072   -0.085415
O       1.135323    1.824269    0.308740
C       2.372183    1.131018    0.232806
C       3.315050    1.515297   -0.867059
C       3.573138    1.951947    0.562547
C      -1.140933    1.948099    0.027200
C      -2.160786    2.579291    0.096422
H       2.299856    0.096400    0.542385
H       3.930601    0.737884   -1.304826
H       2.975474    2.275691   -1.560715
H       3.401246    2.995629    0.799008
H       4.373676    1.483100    1.122981
H      -3.062955    3.137752    0.158373
