18

O      -0.246382    1.362077   -0.193379
N      -0.002630   -0.007572    0.003827
C      -1.078930   -0.666759   -0.011669
C      -2.554563   -0.400665   -0.201036
N      -2.764095   -1.880208   -0.248179
C      -1.346257   -2.155128    0.144406
C      -0.615612   -3.117663   -0.769320
C      -1.311642   -4.327557   -1.265694
N      -0.994582   -3.215192   -2.180846
H       0.643317    1.731578   -0.185318
H      -3.015134    0.111636    0.653761
H      -2.844132    0.123380   -1.117832
H      -3.448660   -2.219366    0.416700
H      -1.226495   -2.480363    1.188677
H       0.456083   -3.158670   -0.586468
H      -0.757950   -5.245959   -1.438363
H      -2.350876   -4.463085   -0.976399
H      -1.848949   -2.671388   -2.305679
