18

N       0.314801    0.763339   -1.030414
C       0.038705    0.117386    0.027965
O       0.911163    0.062801    1.107606
C       1.677390   -1.129321    1.252122
O       0.921120   -2.289861    1.328393
C       0.101051   -2.421044    2.480534
C      -1.020255   -1.362028    2.583509
C      -1.743755   -1.145286    1.279340
C      -1.270123   -0.525305    0.191171
H       1.255180    1.157800   -0.958623
H       2.332925   -1.260075    0.383025
H       2.270159   -0.957795    2.161287
H      -0.331090   -3.422149    2.398889
H       0.718710   -2.388419    3.391337
H      -1.724533   -1.703671    3.349609
H      -0.590686   -0.421455    2.934351
H      -2.748432   -1.555799    1.212033
H      -1.895063   -0.434780   -0.691066
