20

C       0.005118    1.656832    0.200663
C       0.015205    0.132014    0.032867
C       0.801200   -0.540884    1.160127
O       2.136414   -0.063519    1.115239
C      -1.409190   -0.418159   -0.037870
C      -2.230396   -0.116453   -1.328501
C      -2.326758   -1.652060   -1.497071
O      -2.868713   -2.410893   -2.253526
N      -1.538318   -1.845524   -0.385843
H       1.026250    2.033047    0.283555
H      -0.478967    2.149833   -0.647656
H      -0.535968    1.946487    1.109903
H       0.521626   -0.123632   -0.907440
H       0.326448   -0.308627    2.129163
H       0.772303   -1.634330    1.030064
H       2.628638   -0.468690    1.834771
H      -1.956745   -0.161440    0.879290
H      -3.192671    0.375391   -1.178818
H      -1.677372    0.389616   -2.122143
H      -1.345969   -2.687041    0.137539
