18

C      -0.062697    1.523537    0.028701
C       0.015624    0.023822   -0.003798
C       0.080534   -0.675122   -1.157794
C       0.018211   -2.110825   -1.291025
C      -0.656915   -2.970920   -0.480690
C      -1.441347   -2.595663    0.671851
C      -1.196787   -1.531721    1.459925
C       0.060393   -0.713450    1.318737
H       0.783525    1.952774    0.581728
H      -0.072664    1.953567   -0.976273
H      -0.970554    1.858230    0.546606
H       0.169762   -0.116848   -2.088388
H       0.452272   -2.523584   -2.199533
H      -0.715375   -4.011013   -0.793482
H      -2.307842   -3.217441    0.888399
H      -1.910044   -1.256772    2.232259
H       0.932985   -1.381198    1.331648
H       0.166293   -0.011686    2.150407
