17

C       0.027291    1.541740    0.069100
C      -0.032726    0.019663    0.059980
C      -1.451125   -0.539798   -0.011426
O      -2.150659   -0.108591   -1.164410
O       0.627665   -0.493268   -1.127698
C       1.970742   -0.672680   -1.040660
N       2.448364   -1.182095   -2.215400
O       2.637873   -0.448183   -0.058226
H       1.065830    1.878999    0.060864
H      -0.500810    1.948794   -0.796417
H      -0.450821    1.926978    0.975324
H       0.484521   -0.386727    0.933500
H      -1.405046   -1.638154    0.042082
H      -2.021723   -0.185347    0.853056
H      -1.620718   -0.382282   -1.921162
H       1.876103   -1.126911   -3.040345
H       3.446878   -1.165287   -2.331439
