21

C      -0.073742    1.562275   -0.020908
C      -0.003174    0.039419    0.041830
C      -1.408638   -0.570229   -0.048400
O       0.785591   -0.418647   -1.090490
C       1.510449   -1.548701   -0.663243
C       2.581945   -1.384215    0.399367
C       2.290124   -0.119848    1.203575
C       0.780061   -0.535742    1.239444
C       1.194718   -1.947594    0.735258
H       0.919520    2.014295    0.001701
H      -0.564853    1.876224   -0.946681
H      -0.654714    1.953810    0.820236
H      -1.883605   -0.276784   -0.988970
H      -1.364159   -1.662410   -0.017194
H      -2.039800   -0.227533    0.778580
H       1.665461   -2.286923   -1.441288
H       3.530081   -1.906956    0.339775
H       2.731801   -0.170195    2.201922
H       2.546824    0.841087    0.748726
H       0.267668   -0.445790    2.196743
H       0.874416   -2.918474    1.088690
