21

C      -0.359176    1.190337   -0.325609
C       1.005638    1.269095    0.309585
C       0.350977   -0.074104    0.079152
C      -0.123686   -0.872757    1.247887
C       0.795837   -1.891485    1.908762
C      -0.118247   -2.651734    2.898292
C      -1.540808   -2.572667    2.290251
C      -1.515447   -1.289007    1.487417
O      -0.945542   -0.178155    2.206047
H      -1.201087    1.494988    0.284639
H      -0.453113    1.406614   -1.383783
H       1.854772    1.539619   -0.307897
H       1.054355    1.627635    1.331783
H       0.769413   -0.680372   -0.720024
H       1.190386   -2.559914    1.132703
H       1.653725   -1.422447    2.400477
H       0.208406   -3.680774    3.065999
H      -0.109439   -2.142060    3.863848
H      -1.736302   -3.409692    1.607925
H      -2.325080   -2.583307    3.053723
H      -2.323332   -1.030560    0.807235
