19

O       0.863818    0.341883    0.502722
C       0.088868    1.182718    0.135920
C      -1.415145    1.096205    0.136003
C      -1.984446    2.314544    0.893337
C      -1.394906    2.550605    2.299255
C      -0.040537    3.198660    2.551128
C       1.097373    3.393096    1.876202
C       1.525400    3.005511    0.490152
O       0.454180    2.436799   -0.256325
H      -1.787844    1.097160   -0.894441
H      -1.702575    0.149433    0.599805
H      -1.849390    3.210145    0.282434
H      -3.063758    2.165274    1.009624
H      -2.115016    3.177202    2.840726
H      -1.400766    1.596885    2.850750
H      -0.003533    3.570683    3.575313
H       1.896218    3.899079    2.418160
H       1.855227    3.883355   -0.075208
H       2.364861    2.300926    0.539511
