12

O      -0.400390    0.723306    1.000044
C      -0.029653    1.123732   -0.065690
C       1.358927    1.753219   -0.277365
C       1.345266    2.838734   -1.236417
C       1.288570    3.740432   -2.037667
C       1.239385    4.813297   -2.988142
O       1.921584    5.810678   -2.947989
C       0.256095    4.609561   -4.069015
N      -0.513324    4.452437   -4.917642
H      -0.649095    1.050127   -0.983457
H       1.756075    2.065284    0.693544
H       2.013023    0.950816   -0.652029
