16

O      -0.848951    1.414601   -0.365575
C       0.086067    1.258193    0.377493
C       1.440032    1.892366    0.192923
C       1.588438    2.959422   -0.927436
C       1.920656    4.038988    0.137351
C       0.691680    4.687016    0.805455
O       0.613710    3.630710    1.799790
C       1.779494    2.982775    1.266328
H      -0.002328    0.619201    1.284733
H       2.196390    1.098936    0.167058
H       2.412878    2.755142   -1.612917
H       0.678126    3.127078   -1.507032
H       2.801638    4.660584   -0.013432
H       0.877780    5.656996    1.281625
H      -0.216794    4.749689    0.195330
H       2.519180    2.744752    2.034629
