17

N      -0.071487    1.472822   -0.140169
C      -0.067820    0.047141   -0.038921
C       0.369570   -0.741499   -1.312993
O       1.683108   -1.211721   -1.394135
C      -0.839894   -1.725471   -1.140115
C      -1.303360   -0.917374    0.083281
O      -0.724074   -1.486562    1.306689
C       0.378681   -0.667454    1.228742
N       1.391641   -0.577290    1.968084
H      -0.047237    1.910897    0.775228
H       0.754327    1.786703   -0.640677
H       0.212797   -0.104683   -2.188936
H       1.961384   -1.506420   -0.517920
H      -1.528284   -1.716027   -1.987381
H      -0.574854   -2.757334   -0.900852
H      -2.338807   -0.615549    0.224664
H       1.343974   -1.229634    2.753582
