16

O       0.061591    0.038532    0.157580
C       0.009909    1.227775    0.066765
C      -1.154395    2.251916    0.018099
C      -0.106729    3.355211    0.188005
N      -0.138499    4.758283   -0.166762
C       0.855950    5.079312    0.906462
C       0.639096    3.660170    1.504654
O       1.690363    2.706486    1.243704
C       1.087312    2.356049   -0.021873
H      -1.608459    2.257049   -0.981628
H      -1.949618    2.151256    0.760633
H       0.127003    4.996934   -1.117245
H       1.889012    5.219562    0.569385
H       0.554061    5.928463    1.526952
H       0.226227    3.577198    2.510839
H       1.792636    2.324798   -0.857393
