18

C       0.369439    1.456354   -0.059137
N       1.321070    0.351507    0.149780
C      -0.114662    0.060426    0.011840
C      -0.820229   -0.563813    1.218794
C      -1.387339   -1.846505    0.656680
C      -1.244039   -1.934819   -0.666106
C      -0.573149   -0.726514   -1.211624
C      -0.877196   -0.157177   -2.534755
O       0.354477   -0.851131   -2.303538
H       0.233732    2.114990    0.795262
H       0.365026    1.964456   -1.020380
H       1.768932    0.130300   -0.739130
H      -0.113848   -0.730443    2.038733
H      -1.619261    0.081913    1.607728
H      -1.873116   -2.588019    1.280719
H      -1.576477   -2.745795   -1.302449
H      -1.581162   -0.667840   -3.191865
H      -0.791201    0.915493   -2.699391
