15

C      -0.036209    1.438152    0.048263
N       0.034140   -0.004895   -0.057590
C       0.622080   -0.645204   -1.083849
N       1.165103    0.068114   -2.049961
C       1.760699   -0.584467   -3.090414
O       2.301118   -0.084443   -4.050240
N       1.718918   -2.016713   -2.997651
C       1.136421   -2.646319   -1.962728
N       0.571135   -2.029106   -0.975221
H       0.964747    1.879831    0.073797
H      -0.567515    1.868953   -0.805888
H      -0.565817    1.693734    0.967747
H      -0.364648   -0.592160    0.655005
H       2.152689   -2.524094   -3.755028
H       1.152735   -3.734586   -1.976597
