15

C       0.018373    1.475053   -0.077115
C      -0.032997    0.023244   -0.021249
C      -0.082785   -1.180948    0.008795
C      -0.092008   -2.593770    0.103279
O      -0.333343   -3.425423   -1.044141
C      -1.164483   -3.607254    0.091524
C      -0.374762   -4.466875    1.156374
O       0.909324   -4.768736    0.610813
C       0.700425   -3.479455    1.167799
H       0.975600    1.852542    0.298638
H      -0.097452    1.829615   -1.107101
H      -0.779199    1.927083    0.522823
H      -2.236560   -3.500413   -0.019120
H      -0.778105   -5.106323    1.930650
H       1.359153   -3.121148    1.948624
