23

C       0.028261    1.578390    0.151178
C      -0.126558    0.067563   -0.039040
C       0.639959   -0.469244   -1.253650
O       2.034414   -0.164498   -1.169092
C       0.420360   -1.972009   -1.462833
C       1.094305   -2.521833   -2.740689
C       1.079889   -4.062455   -2.771314
C       0.466685   -1.973313   -3.942784
C      -0.071649   -1.536967   -4.925900
H       1.083977    1.851597    0.226806
H      -0.393579    2.125034   -0.699285
H      -0.483904    1.919450    1.055843
H       0.224518   -0.461891    0.859914
H      -1.186691   -0.192745   -0.148166
H       0.303100    0.061894   -2.152296
H       2.368159   -0.563581   -0.357056
H       0.825863   -2.513539   -0.595978
H      -0.654104   -2.187471   -1.496534
H       2.137302   -2.181447   -2.720147
H       1.570956   -4.439796   -3.672000
H       1.602925   -4.464976   -1.897918
H       0.053388   -4.442050   -2.762232
H      -0.531205   -1.145834   -5.799510
