19

C       0.094930    1.550114    0.158054
C      -0.074647    0.038495   -0.054157
C       0.679032   -0.486900   -1.254384
C       0.877686   -2.017976   -1.578250
C       2.010390   -1.493185   -2.502091
O       1.300243   -0.722226   -3.480685
C       0.343678    0.016742   -2.672517
C       2.229370   -0.462986   -1.370300
O       3.131246   -0.005868   -0.735180
H       1.152631    1.808366    0.260469
H      -0.315659    2.125761   -0.677667
H      -0.423783    1.871569    1.065707
H       0.281224   -0.492186    0.837024
H      -1.139458   -0.209907   -0.155023
H       1.229642   -2.596825   -0.721736
H       0.053478   -2.517057   -2.092526
H       2.777352   -2.105532   -2.967922
H      -0.677471   -0.233745   -2.985504
H       0.503412    1.092563   -2.801676
