23

C      -0.122038    1.526314   -0.050379
C      -0.008584   -0.006475    0.062584
C       0.707840   -0.367730    1.377363
C      -1.425056   -0.610921    0.064486
C       0.790157   -0.515972   -1.174993
O       2.071013    0.103629   -1.282364
C       0.944149   -2.046985   -1.274942
C       1.550307   -2.469348   -2.598833
O       1.149808   -3.393502   -3.260341
H       0.864643    1.988821   -0.123441
H      -0.691789    1.812136   -0.941585
H      -0.638410    1.939390    0.822253
H       0.140394    0.011916    2.233020
H       0.810045   -1.449747    1.509762
H       1.705648    0.082244    1.437034
H      -1.924577   -0.457581   -0.898820
H      -1.421529   -1.684124    0.276145
H      -2.038594   -0.129340    0.832841
H       0.251563   -0.166257   -2.065386
H       2.601526   -0.181513   -0.530383
H       1.620869   -2.390980   -0.478262
H      -0.003226   -2.576377   -1.154830
H       2.412243   -1.851431   -2.928691
