14

O      -0.049524    1.429327    0.156226
C       0.008156    0.027349   -0.026033
C       0.589478   -0.716967    1.206044
C      -0.002583   -0.259747    2.460186
N      -0.454982    0.096655    3.461062
C      -1.463702   -0.403211   -0.264935
O      -1.913339   -1.454665    0.089605
C       0.759776   -0.334573   -1.229646
C       1.373709   -0.614406   -2.224535
H       0.820176    1.803069   -0.023402
H       0.397859   -1.786943    1.083649
H       1.672715   -0.567460    1.242924
H      -2.044941    0.366831   -0.809587
H       1.914268   -0.863680   -3.105325
