17

C      -0.198775    1.470024    0.009276
C      -0.100220    0.018966   -0.015669
C      -0.007893   -1.182763   -0.030775
C       0.092954   -2.636910   -0.058991
O      -1.199863   -3.259958   -0.103839
C       0.937347   -3.139408   -1.250398
O       0.851481   -4.539807   -1.350688
C       0.721225   -3.099594    1.278646
O       1.899993   -3.127905    1.488911
H       0.681528    1.910148    0.489715
H      -0.268834    1.882389   -1.002855
H      -1.082028    1.796770    0.568266
H      -1.799762   -2.659585   -0.558629
H       0.591475   -2.631774   -2.164402
H       1.983629   -2.877541   -1.075683
H      -0.089274   -4.750840   -1.291333
H      -0.042540   -3.385590    2.032368
