18

O      -0.077722   -0.052659   -0.003057
C      -0.056609    1.158524    0.034592
N      -1.148758    1.983083    0.064299
C      -0.865382    3.405645    0.028496
C       0.638072    3.467408    0.374027
C       0.948171    3.614825    1.875902
O       2.164313    2.922823    2.076228
C       2.120055    1.739720    1.283772
C       1.187192    2.053249    0.085793
H      -2.076286    1.597956   -0.019890
H      -1.067251    3.835768   -0.961476
H      -1.477083    3.951649    0.756899
H       1.148891    4.245535   -0.195052
H       1.090434    4.649806    2.197537
H       0.132284    3.172437    2.474439
H       3.143374    1.506521    0.980162
H       1.728964    0.889267    1.859343
H       1.712458    1.969429   -0.868357
