17

C      -0.000132    1.550946    0.106748
C       0.058841    0.024599    0.052959
C       0.667504   -0.520024   -1.271805
C       2.051061   -0.041629   -1.445505
N       3.129345    0.354632   -1.568179
C       0.610637   -1.980726   -1.345012
C       0.544701   -3.181092   -1.382405
C       0.475319   -4.633695   -1.437225
H       0.998272    1.991604    0.029911
H      -0.610806    1.954941   -0.708235
H      -0.442706    1.882393    1.050183
H       0.645869   -0.370798    0.887517
H      -0.944263   -0.404588    0.137211
H       0.086289   -0.097603   -2.104446
H       1.472408   -5.068785   -1.563408
H       0.045685   -5.045326   -0.517709
H      -0.144138   -4.969865   -2.275533
