21

C       0.226679    1.330673    0.250885
C       0.138507   -0.162608    0.555033
N      -1.223860   -0.637521    0.312078
C      -1.568394   -1.075816   -1.033612
C      -1.503527   -2.052789    0.092037
C      -0.448926   -3.143588    0.087356
N      -0.071492   -3.586555    1.423538
C       1.172264   -3.404723    1.940915
O       2.105357   -2.887367    1.362096
H       1.228645    1.708971    0.474473
H       0.018808    1.528162   -0.806142
H      -0.500612    1.889345    0.846837
H       0.898111   -0.705891   -0.026519
H       0.368445   -0.343731    1.610558
H      -2.523105   -0.737991   -1.428621
H      -0.766934   -1.130646   -1.771736
H      -2.445089   -2.369689    0.544021
H      -0.836828   -3.998687   -0.481348
H       0.473659   -2.820331   -0.395535
H      -0.772758   -4.005616    2.013876
H       1.246907   -3.796078    2.974788
