14

O       0.020741    1.397662    0.008363
C      -0.007597    0.022450    0.061918
C      -0.355385   -0.809334    1.288782
C      -1.516048   -0.178638    1.980286
N      -1.795693    0.090675    3.166345
O      -2.271933   -0.004446    0.807116
C      -1.294808   -0.751069    0.049426
C      -1.714536   -1.807390   -0.884218
O      -2.857153   -2.080732   -1.145412
H      -0.853513    1.724941    0.258875
H       0.798812   -0.411235   -0.523686
H       0.260052   -1.614926    1.663217
H      -2.723599    0.506865    3.255103
H      -0.851318   -2.337370   -1.345997
