16

O      -0.035167    1.419613   -0.000933
C      -0.018732    0.008003    0.009615
C      -1.416499   -0.582386    0.035697
O      -2.043812   -0.170220   -1.199885
C      -3.311768   -0.508784   -1.397455
C      -4.144592   -0.223538   -2.441292
C      -5.342743   -0.872350   -2.057839
N      -5.259134   -1.489710   -0.903944
O      -3.930973   -1.251345   -0.474462
H      -0.541558    1.688305   -0.775301
H       0.530371   -0.401670   -0.852388
H       0.508414   -0.298907    0.918587
H      -1.393976   -1.675975    0.090557
H      -1.992276   -0.190761    0.879771
H      -3.927669    0.350356   -3.324323
H      -6.282129   -0.911327   -2.592607
