18

N      -0.089188    1.274818    0.101758
C      -0.057586    0.016002    0.020167
O      -1.192670   -0.698607    0.132689
C      -1.094483   -2.115583    0.103562
C      -1.376499   -2.777058    1.488949
C      -2.632045   -3.570392    1.067435
C      -2.222604   -4.216440   -0.276455
C      -2.294593   -2.719371   -0.654301
O      -3.377313   -2.567753    0.308911
H       0.848078    1.652490   -0.019244
H       0.835116   -0.603928   -0.148722
H      -0.134594   -2.412895   -0.333860
H      -0.557567   -3.404497    1.849675
H      -1.611203   -2.016180    2.234932
H      -3.218224   -4.078904    1.831779
H      -1.271052   -4.750743   -0.350220
H      -3.037590   -4.782339   -0.727180
H      -2.515134   -2.339685   -1.650895
