18

O      -0.060473    0.882293   -0.862972
C      -0.142014   -0.152852    0.073753
C      -1.508303   -0.812378    0.038902
O      -2.375195   -0.461281   -0.732049
O      -1.622181   -1.787669    0.941273
C      -2.903454   -2.468755    1.019140
C      -2.987141   -3.621162    0.057895
C      -4.311490   -3.970707   -0.521358
N      -3.264693   -3.387715   -1.365983
H      -0.910359    0.885731   -1.326948
H       0.612770   -0.931446   -0.115078
H       0.035797    0.216757    1.094295
H      -2.957782   -2.814406    2.054332
H      -3.698103   -1.741639    0.833006
H      -2.269640   -4.417974    0.242674
H      -4.550547   -5.010021   -0.726974
H      -5.166172   -3.357985   -0.243411
H      -3.435797   -2.396130   -1.517953
