16

O      -0.922711    1.542739   -0.078149
C       0.107076    1.297117    0.492916
C       1.399319    2.095702    0.272848
O       2.378227    1.800371    0.918741
C       1.375265    3.197662   -0.779659
N       2.563393    4.021440   -0.842880
C       2.665764    4.982830    0.265094
C       3.915005    5.731834    0.197040
C       4.954549    6.331869    0.152842
H       0.220369    0.479058    1.235542
H       1.205741    2.703303   -1.747836
H       0.484488    3.817988   -0.624398
H       3.387720    3.428312   -0.829270
H       1.818911    5.677765    0.183869
H       2.591206    4.509288    1.258632
H       5.868997    6.869998    0.110996
