19

C       0.590609    1.022449   -0.388546
O       0.562677   -0.369474   -0.092168
C       0.638387   -0.654243    1.295458
C       0.536580   -2.181334    1.480281
C       1.955753   -2.632680    1.794868
C       3.056204   -2.228939    0.822086
O       2.854974   -1.896538   -0.506656
C       2.735938   -1.350080    2.007184
O       1.873810   -0.241735    1.837191
H       1.524741    1.481916   -0.050009
H       0.503150    1.117097   -1.472329
H      -0.256084    1.535244    0.088445
H      -0.146494   -0.078724    1.804161
H      -0.125628   -2.415539    2.317941
H       0.116291   -2.630606    0.576912
H       2.085744   -3.505146    2.425265
H       3.976326   -2.797970    0.926038
H       2.077705   -1.317452   -0.578161
H       3.445082   -1.179400    2.809697
