20

C       0.505278    1.011890    1.037459
C       0.159931   -0.131434    0.111062
C       0.633395   -0.100262   -1.284070
O       1.300172   -0.908637   -0.315555
C      -1.065392   -0.974707    0.403539
C      -1.438884   -1.430119    1.868307
C      -2.839452   -0.851165    1.643547
N      -2.651935    0.599650    1.403046
C      -2.472675   -0.363164    0.286315
H       1.362212    1.568514    0.649093
H      -0.349614    1.679873    1.161109
H       0.772123    0.632573    2.029197
H       0.091906   -0.646263   -2.057256
H       1.192899    0.763756   -1.641519
H      -1.004779   -1.861025   -0.233606
H      -1.417403   -2.515805    1.976866
H      -0.883446   -0.971450    2.688794
H      -3.783944   -1.230443    2.012754
H      -3.579861    1.007141    1.289516
H      -3.071688   -0.275257   -0.612426
