20

C      -0.029418    1.463842   -0.023280
C       1.276875    0.692705    0.007180
C      -0.033024   -0.033380    0.001841
C      -0.534672   -0.927443    1.132827
C       0.243117   -2.213479    0.791001
N      -0.616535   -2.313412   -0.440343
C      -1.730207   -1.617348    0.350724
C      -2.095227   -0.815213   -0.897552
C      -0.570146   -0.919082   -1.122622
H      -0.325053    1.998066    0.874126
H      -0.303733    1.966082   -0.946445
H       1.879905    0.680971   -0.895482
H       1.855568    0.706461    0.925990
H      -0.615824   -0.508119    2.137273
H       1.323120   -2.143818    0.630317
H       0.012833   -3.067023    1.435605
H      -2.428378   -2.240728    0.911215
H      -2.664668   -1.432783   -1.595320
H      -2.533293    0.179801   -0.801960
H      -0.106383   -0.865286   -2.107402
