21

C       0.249219    1.579912    0.053331
C       0.069611    0.061067    0.019418
C       0.705039   -0.621769   -1.221623
C       1.074084   -2.056123   -0.778766
C       1.312115   -1.929276    0.717015
C       1.554940   -3.135345    1.582854
O       2.782030   -3.770073    1.256264
O       2.149086   -0.792069    1.046842
C       0.722378   -0.668543    1.182370
H       1.312949    1.836079    0.089097
H      -0.182926    2.047243   -0.837419
H      -0.235823    2.022045    0.930094
H      -1.003767   -0.175043    0.057632
H       0.037532   -0.607005   -2.086865
H       1.612472   -0.079547   -1.500057
H       0.242105   -2.752937   -0.941119
H       1.942779   -2.459638   -1.305913
H       1.525503   -2.836210    2.641055
H       0.772226   -3.884370    1.420166
H       3.472022   -3.106682    1.371497
H       0.366309   -0.523267    2.200782
