13

O      -0.009723    0.018271    0.090890
C      -0.047843    1.209750    0.026507
C      -1.224123    2.136712   -0.007690
C      -0.803516    3.427991    0.667395
C      -0.824207    3.346082   -0.830789
C       0.741404    3.271437   -0.835229
C       0.761714    3.351494    0.637137
N       1.119709    2.077155   -0.037000
H      -2.240362    1.772729    0.026290
H      -1.425393    3.988756    1.348715
H      -1.465456    3.830155   -1.551803
H       1.422819    3.622757   -1.597889
H       1.463313    3.782386    1.338205
