22

C      -0.013130    1.593710    0.099994
C      -0.032407    0.067122   -0.041415
C       0.732410   -0.471719   -1.266144
C       2.204997   -0.037646   -1.252267
C       0.622113   -2.024839   -1.371621
C      -0.829834   -2.551835   -1.368051
C       1.307795   -2.521390   -2.566313
C       1.835400   -2.936094   -3.564587
H       0.991063    1.978554    0.298111
H      -0.382619    2.079394   -0.810508
H      -0.655185    1.911740    0.927407
H       0.383388   -0.389023    0.868615
H      -1.077192   -0.254840   -0.094479
H       0.260893   -0.058521   -2.169568
H       2.746021   -0.460996   -2.101601
H       2.302040    1.049794   -1.301391
H       2.702008   -0.375522   -0.334103
H       1.135044   -2.446106   -0.493635
H      -1.416912   -2.072665   -2.158098
H      -0.839768   -3.629330   -1.550195
H      -1.319887   -2.366875   -0.409837
H       2.313608   -3.305392   -4.437661
