21

C       0.105732    1.562371   -0.057561
C       0.032748    0.034249    0.026602
C      -1.391599   -0.540295   -0.000338
C      -1.402164   -2.070643   -0.032542
C      -2.832028   -2.576338   -0.136367
O      -3.708644   -2.063955    0.881304
C      -3.556967   -0.825459    1.410771
O      -4.440464   -0.370699    2.085482
C      -2.232973   -0.097592    1.204597
H       1.145764    1.900177   -0.092530
H      -0.393909    1.933318   -0.959477
H      -0.365137    2.043755    0.804988
H       0.594270   -0.398490   -0.811269
H       0.537385   -0.309527    0.940244
H      -1.883979   -0.181986   -0.917368
H      -0.833774   -2.453754   -0.887743
H      -0.928761   -2.467348    0.875183
H      -3.258310   -2.307339   -1.112142
H      -2.885677   -3.663594   -0.037628
H      -1.660113   -0.270095    2.127499
H      -2.468350    0.968230    1.188782
