18

C       0.052533    1.550859    0.143550
C      -0.015608    0.037893   -0.079746
C      -1.455735   -0.514299   -0.065539
C      -1.561819   -2.078793    0.060600
N      -2.132229   -1.872637    1.391252
C      -2.096008   -0.505701    1.376401
O      -2.402416    0.338261    2.172122
C      -2.297619    0.061127   -1.096151
C      -2.996140    0.533067   -1.953759
H       1.093074    1.887990    0.162452
H      -0.464898    2.086117   -0.657538
H      -0.419369    1.824295    1.090787
H       0.446911   -0.227799   -1.037654
H       0.550610   -0.482086    0.702990
H      -2.242267   -2.547288   -0.654608
H      -0.596532   -2.594979    0.058391
H      -2.425373   -2.519675    2.107838
H      -3.616773    0.957317   -2.703849
