19

C       0.082048   -1.181099    0.039981
C      -0.013417    0.020437   -0.001136
C      -0.064542    1.428663   -0.061105
C      -1.141614    2.237894   -0.034161
C      -0.645752    3.668785    0.023732
C      -0.031473    3.862479    1.454247
C       1.222992    2.935952    1.418806
C       1.171373    2.335908   -0.024594
C       0.643755    3.547741   -0.822832
H       0.147841   -2.239900    0.077693
H      -2.175513    1.929185    0.052792
H      -1.365836    4.435423   -0.262975
H       0.249451    4.909006    1.607184
H      -0.739179    3.591008    2.240612
H       2.144098    3.509757    1.557543
H       1.200823    2.156117    2.183108
H       2.098537    1.871579   -0.358639
H       0.445215    3.315992   -1.871999
H       1.293050    4.426998   -0.753682
