11

N      -0.026253    1.242922    0.369001
C      -0.031428    0.045230   -0.022494
O       1.126905   -0.573510   -0.450303
N       1.179760   -1.908004   -0.897888
C       0.070776   -2.541932   -0.890096
N      -1.145635   -2.043618   -0.490463
C      -1.317538   -0.746776   -0.032254
O      -2.386241   -0.319554    0.315689
H       0.916483    1.635698    0.314563
H       0.098617   -3.570097   -1.232352
H      -1.973558   -2.622635   -0.519241
