20

C       0.076458    1.487538    0.014151
C       0.037239    0.032580    0.014812
C       0.009929   -1.172066    0.031843
C      -0.032443   -2.606725    0.007635
N      -0.555596   -3.308945    1.217531
C      -1.318361   -3.367819   -0.014479
C      -2.720714   -2.795510   -0.223115
C      -2.890200   -3.798077   -1.404921
C      -1.629932   -4.572042   -0.910946
H       1.103308    1.857952   -0.080643
H      -0.504434    1.905071   -0.815939
H      -0.336603    1.893085    0.944404
H       0.801387   -3.082420   -0.506813
H      -0.032722   -4.172745    1.351918
H      -3.379969   -3.017069    0.621070
H      -2.780792   -1.729083   -0.451059
H      -3.823837   -4.361972   -1.441627
H      -2.728279   -3.325044   -2.376060
H      -0.881097   -4.855167   -1.655848
H      -1.894141   -5.458923   -0.324523
