15

O       0.030392    0.050575    0.288723
C      -0.048146    1.215637    0.038229
C      -1.166672    2.248341   -0.071912
C      -1.260542    2.925561    1.345706
C       0.054735    3.713732    1.093738
C       1.327444    2.840428    1.192110
N       1.002643    2.195473   -0.140948
C      -0.032362    3.265968   -0.400742
H      -2.087256    2.052362   -0.619093
H      -2.108723    3.614119    1.355456
H      -1.324627    2.267151    2.216503
H       0.098402    4.742924    1.448766
H       2.251085    3.419614    1.109391
H       1.417947    2.128875    2.018210
H       0.059038    3.881676   -1.292005
