16

C      -0.067325   -1.222672    0.129982
C      -0.061475   -0.019214    0.094006
C      -0.012211    1.408719    0.041463
C       0.559803    2.219501    1.217515
C       1.327840    2.117072   -0.046082
C       2.690319    1.517327   -0.357835
C       2.800115    2.704201   -1.340677
O       1.511914    3.222715   -0.919742
H      -0.090477   -2.283341    0.166730
H      -0.813492    1.897524   -0.505619
H       0.071287    3.164088    1.430628
H       0.909255    1.667950    2.083550
H       3.403189    1.534487    0.468551
H       2.666596    0.520981   -0.801429
H       3.602884    3.421852   -1.143608
H       2.799396    2.439851   -2.403746
