20

C      -0.012372    1.551300   -0.078539
C       0.043027    0.039621    0.051242
O       0.621895   -0.474116   -1.167337
C       1.021143   -1.767413   -1.145540
N       1.114866   -2.559727   -0.165360
C       0.781571   -2.041958    1.158302
C       0.814485   -0.504735    1.270338
C       2.250970    0.020250    1.353827
O       0.052357   -0.074622    2.398697
H       0.980715    1.969160   -0.262144
H      -0.656819    1.831518   -0.915879
H      -0.417092    1.981938    0.839598
H      -0.979090   -0.354441    0.126220
H       1.292557   -2.088631   -2.149704
H      -0.221024   -2.386742    1.440259
H       1.477718   -2.487220    1.880925
H       2.828915   -0.244057    0.464182
H       2.265584    1.106120    1.471446
H       2.758477   -0.422797    2.218752
H       0.519742   -0.349078    3.194686
