10

O      -0.017229   -0.097958    0.003534
C       0.013261    1.100107    0.005583
O       1.115950    1.862298   -0.002772
C       2.346450    1.112374   -0.015110
C       3.451575    2.065029   -0.019396
N       4.354176    2.783857   -0.023146
C      -1.180031    1.947585    0.018028
N      -2.155103    2.565619    0.028021
H       2.398734    0.467024    0.866968
H       2.385496    0.474575   -0.903365
