20

C       0.021907    1.531800   -0.002439
C      -0.027253    0.041848    0.005578
C      -1.062407   -0.798977   -0.054374
C      -0.618529   -2.248164   -0.014934
C      -1.176564   -2.975981    1.223935
C      -1.014867   -2.995274   -1.303595
N       0.825750   -2.079314    0.076133
C       1.234990   -0.768203    0.092685
O       2.376338   -0.358124    0.163023
H       0.623713    1.891409   -0.844196
H      -0.976485    1.970841   -0.069509
H       0.512040    1.904282    0.903684
H      -2.112096   -0.537015   -0.123614
H      -2.269195   -3.027234    1.182829
H      -0.795397   -4.001851    1.271497
H      -0.885811   -2.454511    2.139157
H      -0.609356   -2.487490   -2.182124
H      -0.631728   -4.021369   -1.286604
H      -2.103879   -3.046964   -1.401270
H       1.480455   -2.842211    0.124419
