18

C      -0.071556    1.613531    0.188688
C      -0.063915    0.096204    0.067564
O       0.421342   -0.251693   -1.222361
C       0.847890   -0.525383    1.127596
O       0.364412   -0.321361    2.474247
C       0.175625   -1.727695    2.694429
C       0.794179   -2.076954    1.312993
C      -0.016916   -2.829463    0.374229
N      -0.672290   -3.396663   -0.392480
H       0.925047    2.012591   -0.026323
H      -0.774637    2.045642   -0.527399
H      -0.361385    1.911375    1.199667
H      -1.084300   -0.285867    0.219569
H       0.079908   -1.123522   -1.450330
H       1.867754   -0.143900    0.999139
H       0.741984   -2.094995    3.556202
H      -0.880139   -1.996935    2.807560
H       1.782228   -2.534432    1.383983
