20

C      -0.139034    1.353052   -0.113806
C       0.028341   -0.165527   -0.011524
C       0.771948   -0.586963    1.258927
C       0.918815   -2.118280    1.412753
N       1.680338   -2.721884    0.316945
C       1.103745   -3.520224   -0.622305
O      -0.084585   -3.743189   -0.715556
C       1.528878   -2.463235    2.697756
C       2.056597   -2.712935    3.748253
H       0.832123    1.860765   -0.121480
H      -0.666900    1.631370   -1.030920
H      -0.710846    1.748699    0.732878
H      -0.954520   -0.651528   -0.035310
H       0.569513   -0.535852   -0.889434
H       1.770709   -0.132148    1.284786
H       0.242642   -0.216711    2.144897
H      -0.075752   -2.573733    1.344905
H       2.686227   -2.663020    0.351557
H       1.855818   -3.944733   -1.315965
H       2.504486   -2.949588    4.681770
