20

C      -0.108583    1.472515    0.019906
C       0.015617   -0.016810   -0.043706
C       0.051383   -0.787593   -1.130808
C       0.093543   -2.261232   -0.821949
C       0.427788   -2.286734    0.686092
C       0.044141   -0.874043    1.233327
C       1.034928   -0.371108    2.303331
C      -1.310923   -0.891561    1.815273
N      -2.375797   -0.893035    2.267016
H       0.749124    1.932122    0.525270
H      -0.180338    1.903716   -0.981635
H      -1.003164    1.767065    0.582707
H       0.010976   -0.404735   -2.145413
H      -0.876957   -2.729734   -1.034595
H       0.835149   -2.804673   -1.417421
H      -0.069948   -3.090800    1.231450
H       1.506047   -2.411964    0.823543
H       2.034450   -0.292785    1.865561
H       0.745378    0.608772    2.691314
H       1.077173   -1.067680    3.145399
