20

O      -0.376914    1.348559    0.063446
C      -0.061755    0.000598    0.031775
C       0.615765   -0.856735   -1.067599
N       0.232117   -1.895154   -0.003229
C       0.749103   -0.874640    1.021298
C      -1.101327   -1.126851    0.088461
C      -2.093349   -1.355645    1.246553
C      -3.255955   -1.205179    0.225303
C      -2.232764   -1.336921   -0.937869
H       0.437452    1.861425    0.015693
H       0.099860   -0.988518   -2.020256
H       1.696724   -0.762131   -1.204397
H       1.838785   -0.781210    1.021154
H       0.358356   -1.023227    2.029424
H      -2.011166   -2.371132    1.645522
H      -2.066310   -0.645956    2.076918
H      -4.046730   -1.956276    0.269333
H      -3.713096   -0.213837    0.262975
H      -2.310723   -0.613128   -1.752695
H      -2.203071   -2.345358   -1.361328
