19

C       0.236377    1.505103   -0.289228
C       0.024938    0.012148   -0.025128
C       0.725955   -0.422750    1.264372
N      -1.402490   -0.275586    0.067639
C      -1.822754   -1.693198    0.188157
C      -2.915771   -1.396608   -0.846599
O      -3.887785   -1.963304   -1.243522
C      -2.240001   -0.050128   -1.135903
H       1.303812    1.730622   -0.370369
H      -0.242235    1.822809   -1.220507
H      -0.183798    2.098729    0.528989
H       0.471651   -0.554987   -0.869657
H       0.317932    0.123103    2.121098
H       0.599891   -1.493368    1.451916
H       1.799270   -0.220395    1.201872
H      -1.094551   -2.422084   -0.207663
H      -2.141118   -2.015200    1.184674
H      -2.867802    0.846388   -1.121322
H      -1.688071   -0.084865   -2.091096
