16

C       0.019415   -1.136447   -0.009822
C       0.002309    0.066033    0.000621
C      -0.020002    1.497967    0.011897
C      -0.644808    2.430425    1.105322
C      -0.049479    3.387929    0.026615
C       1.210528    2.467933    0.005088
C      -0.670342    2.446832   -1.051858
C      -0.071924    4.827526    0.037655
N      -0.090031    5.983820    0.046430
H       0.035781   -2.198316   -0.018165
H      -1.732820    2.415555    1.192310
H      -0.153239    2.433280    2.080005
H       1.829576    2.473384    0.904152
H       1.808949    2.487179   -0.907672
H      -0.202057    2.464613   -2.037736
H      -1.760096    2.433111   -1.113088
