16

C      -0.151891    1.480334   -0.198694
C      -0.093057   -0.003764   -0.110048
C      -1.050979   -0.972175    0.025858
C      -2.543339   -0.797023    0.099147
C      -3.066199   -0.319621   -1.247287
O      -3.476040    0.792931   -1.457022
C      -0.289406   -2.173786    0.055328
N       0.997071   -1.958631   -0.044183
O       1.123030   -0.574249   -0.149529
H       0.228659    1.943197    0.718691
H       0.462650    1.840842   -1.028909
H      -1.180271    1.810104   -0.356853
H      -3.012201   -1.757173    0.342691
H      -2.834715   -0.067114    0.859666
H      -3.002142   -1.075558   -2.061419
H      -0.646651   -3.190348    0.152101
