19

C      -0.071822    1.459235   -0.022496
N       0.008319    0.014413   -0.009947
C       0.115272   -0.778908   -1.111597
O       0.149739   -0.160863   -2.324063
C       0.167572   -2.098188   -0.733380
C       0.087369   -2.117475    0.697018
C       0.105343   -3.331127    1.574446
C      -0.009716   -0.811763    1.120968
N      -0.115437   -0.218646    2.399852
H       0.819410    1.898321   -0.482230
H      -0.948917    1.799370   -0.582380
H      -0.149004    1.790378    1.013088
H       0.224307   -0.840232   -3.000593
H       0.252682   -2.949824   -1.391974
H       1.027730   -3.912533    1.453181
H       0.030676   -3.050537    2.629903
H      -0.728238   -4.009705    1.354828
H      -0.949664   -0.509111    2.897531
H       0.684276   -0.418046    2.990350
