17

C      -0.008880    1.479611    0.033558
C       0.007421   -0.010506   -0.032881
N      -0.029124   -0.733449   -1.124346
C       0.005598   -2.056693   -0.702344
C      -0.017835   -3.153487   -1.596492
C      -0.036724   -4.101665   -2.339590
C       0.063989   -2.123860    0.675255
C       0.117153   -3.281446    1.609110
N       0.064620   -0.809167    1.083332
H       0.891446    1.876797    0.516669
H      -0.056024    1.870835   -0.983187
H      -0.876013    1.854200    0.589896
H      -0.053712   -4.928260   -3.005099
H       1.025538   -3.274039    2.223981
H      -0.742366   -3.301780    2.290410
H       0.109820   -4.207600    1.030749
H       0.100795   -0.493843    2.038840
