21

C      -0.082734    1.440203    0.024252
C      -0.018487   -0.067058   -0.037493
C       1.040046   -0.737642   -0.923526
C       0.380762   -2.072935   -1.366442
C      -0.726161   -2.288754   -0.325572
C      -0.139969   -2.306274    1.126012
C      -0.450534   -0.815268    1.242665
C      -1.283674   -0.860913   -0.032536
O      -2.508808   -0.329882   -0.380965
H       0.829903    1.859020    0.463617
H      -0.197269    1.868007   -0.978007
H      -0.933351    1.777268    0.623503
H       1.285744   -0.102939   -1.781208
H       1.975835   -0.904838   -0.378225
H      -0.062008   -1.968169   -2.363535
H       1.090725   -2.905469   -1.406228
H      -1.440090   -3.078683   -0.563556
H      -0.750274   -2.902086    1.810693
H       0.905337   -2.622055    1.222224
H      -0.609462   -0.257390    2.159440
H      -3.192458   -0.776345    0.130352
