21

C      -0.360560    1.287634   -0.014708
O       0.243900    0.017084    0.134775
C       0.806340   -0.479067   -1.036647
C      -0.081045   -1.012662   -2.142583
C       0.793406   -1.957686   -1.334898
C       2.173563   -2.351032   -1.870948
C       2.153374   -3.135582   -3.191557
C       2.890627   -1.013497   -1.955842
C       2.158256   -0.006044   -1.479200
H       0.369048    2.062906   -0.290085
H      -1.152287    1.271818   -0.776980
H      -0.798249    1.547841    0.951948
H      -1.142976   -1.072998   -1.925733
H       0.166246   -0.780319   -3.173107
H       0.278908   -2.630988   -0.659826
H       2.679706   -2.979726   -1.123084
H       1.643383   -2.573287   -3.979789
H       3.171005   -3.348221   -3.536103
H       1.634768   -4.091630   -3.069125
H       3.880676   -0.920136   -2.390167
H       2.462819    1.033124   -1.428467
