21

C       0.092780    1.513018   -0.072676
C      -0.014094   -0.013481    0.002497
C      -1.457015   -0.533714    0.046073
C      -2.243586   -0.344398   -1.243734
C      -2.031756   -1.521652   -2.180989
C      -3.318753   -1.402145   -1.390512
C      -2.854577   -2.553265   -0.460796
C      -1.567902   -2.671443   -1.251479
C      -1.556303   -2.048852    0.134546
H       1.138316    1.837096   -0.067460
H      -0.368787    1.905165   -0.984929
H      -0.405728    1.987783    0.780145
H       0.498232   -0.465384   -0.856155
H       0.515474   -0.366554    0.896915
H      -1.986989   -0.065731    0.887802
H      -2.418905    0.637228   -1.667781
H      -1.864288   -1.439248   -3.245786
H      -4.325865   -1.210210   -1.733846
H      -3.472413   -3.325161   -0.023342
H      -1.008883   -3.551932   -1.535870
H      -1.102038   -2.596096    0.952989
