21

C      -0.135117    1.521566    0.385290
C       0.028609    0.025008    0.232296
N       1.282097   -0.610140   -0.216441
C       2.444337    0.199963   -0.546024
C       0.873472   -0.761821    1.165795
C       1.654060   -0.298016    2.428484
C       1.356795   -1.678273    3.035587
N      -0.119202   -1.817112    3.069467
C       0.626474   -2.112101    1.813082
H       0.705323    1.987360    0.904983
H      -0.246665    2.011296   -0.588736
H      -1.038314    1.731698    0.967476
H      -0.851663   -0.468032   -0.180546
H       2.608788    1.074151    0.100606
H       3.339402   -0.429030   -0.492218
H       2.349215    0.554789   -1.577232
H       2.718318   -0.149102    2.224900
H       1.260541    0.558077    2.982665
H       1.986429   -2.246861    3.708141
H      -0.320560   -2.717216    3.506443
H       0.563736   -3.077448    1.326436
