17

C      -0.030349    1.483400    0.049641
C       0.002344   -0.007169   -0.035928
C      -0.013215   -0.756807   -1.151029
C       0.030566   -2.177677   -0.826686
C       0.080698   -2.323798    0.687059
C       0.060024   -0.864745    1.210746
N       0.031163   -3.199920   -1.595216
O      -0.019589   -2.819501   -2.953317
H       0.857573    1.865230    0.570011
H      -0.075428    1.947148   -0.938661
H      -0.897250    1.823462    0.630779
H      -0.052821   -0.386526   -2.165864
H      -0.771857   -2.903847    1.050520
H       0.982502   -2.859100    0.996365
H       0.947375   -0.623638    1.810109
H      -0.801925   -0.666731    1.860848
H      -0.013115   -3.672693   -3.398620
