19

C       0.192316    1.429531    0.119160
C       0.006628   -0.049376    0.007777
C       0.049323   -0.811988   -1.088990
C      -0.118636   -2.291275   -0.821185
O       0.905026   -3.090166   -1.405987
C      -0.205900   -2.356472    0.726710
C       1.110207   -2.442903    1.531213
O       0.968146   -1.093219    2.030575
C      -0.232332   -0.900077    1.233890
H       1.009528    1.655116    0.814462
H       0.420952    1.887545   -0.846518
H      -0.706753    1.911222    0.523789
H       0.215442   -0.445653   -2.097902
H      -1.040753   -2.681126   -1.268588
H       1.746314   -2.650618   -1.241648
H      -0.990096   -3.023490    1.082507
H       1.115680   -3.173882    2.346977
H       2.025561   -2.575147    0.940586
H      -1.065635   -0.554879    1.857638
