21

C      -0.254660    1.267916   -0.661731
C       0.148912   -0.189728   -0.566628
C       1.528848   -0.783948   -0.598567
C       2.601725   -0.003443    0.175332
C       3.185877    1.286483   -0.392118
C       1.669913    0.015406    1.432649
C       0.652966   -0.876747    0.687377
C       0.006452   -2.006882    1.260504
C      -0.532581   -2.959371    1.764009
H      -0.133069    1.639131   -1.685313
H      -1.309637    1.381619   -0.389941
H       0.322995    1.918065   -0.002466
H      -0.545235   -0.841117   -1.094968
H       1.752823   -1.593771   -1.284557
H       3.428035   -0.691048    0.384432
H       2.419279    2.031359   -0.617559
H       3.890910    1.735729    0.316407
H       3.734150    1.086062   -1.319508
H       2.110435   -0.482956    2.297138
H       1.290883    0.991020    1.751975
H      -1.010686   -3.799139    2.203072
