19

O       0.209537    1.263157   -0.210025
C       0.046230   -0.070140    0.257321
C      -1.390620   -0.532101    0.191003
C      -1.946199   -1.072410   -1.120502
C      -1.717944   -2.001056    0.044013
O      -0.647613   -2.922363   -0.054048
C      -0.988493   -4.124464    0.640292
C      -2.386768   -3.899673    1.147142
C      -2.792060   -2.682507    0.798010
H      -0.132594    1.291896   -1.109765
H       0.686538   -0.775326   -0.290045
H       0.391555   -0.059129    1.296504
H      -2.077244    0.053403    0.797603
H      -2.962283   -0.827023   -1.411002
H      -1.249508   -1.183975   -1.946342
H      -0.917606   -4.978945   -0.050045
H      -0.267786   -4.302683    1.453928
H      -2.942349   -4.639114    1.708527
H      -3.745161   -2.218121    1.013990
