21

C       0.172232    1.730725    0.088540
C       0.077359    0.221836    0.042062
C       1.212439   -0.695473   -0.365377
C       2.628534   -0.227688   -0.692034
C       3.483806    0.216160    0.478113
O       3.133939    1.436908    1.143925
C       2.989333    0.204592    1.862551
C       1.588661   -0.252018    2.219427
C       0.702370   -0.707401    1.062724
H       1.146731    2.071345    0.439469
H      -0.000565    2.156699   -0.906882
H      -0.594333    2.142828    0.755418
H      -0.893544   -0.123901   -0.307597
H       0.911122   -1.542255   -0.975188
H       3.157723   -1.064963   -1.163140
H       2.617710    0.576190   -1.439860
H       4.557766    0.114384    0.316416
H       3.718410    0.094747    2.666463
H       1.704118   -1.098978    2.906698
H       1.102302    0.540730    2.803026
H       0.087405   -1.561518    1.331058
