17

C      -0.154170    1.529164    0.047408
N       0.099795    0.093859   -0.022875
C       0.720495   -0.463757   -1.211894
C       2.245133   -0.354848   -1.153462
O       2.824628    0.608625   -0.285678
C       2.310838    0.406482    0.977044
N       2.683324    1.003969    2.023608
C       1.154829   -0.555114    0.833118
C       1.553016   -1.428769   -0.383258
H       0.715107    2.160442   -0.185892
H      -0.952409    1.767020   -0.663436
H      -0.509307    1.780362    1.050784
H       0.169335   -0.601592   -2.136720
H       2.853228   -0.557165   -2.025496
H       3.449823    1.648348    1.819044
H       0.796765   -0.986040    1.765306
H       1.703014   -2.497221   -0.429930
