19

C      -0.439343    1.341691    0.066367
C       0.433994    0.077074    0.125355
C       0.938914   -0.361616   -1.217534
C       2.251209   -0.395822   -1.650505
N       2.241628   -0.832355   -2.938909
N       0.995572   -1.080359   -3.392659
C       0.214151   -0.801616   -2.353157
O       3.407540   -0.050185   -1.037749
C       4.028332   -1.098369   -0.287094
H       0.121519    2.183228   -0.351355
H      -1.319537    1.184204   -0.564939
H      -0.787737    1.623353    1.065235
H       1.292636    0.263717    0.780171
H      -0.140221   -0.732550    0.594136
H       3.031453   -0.921144   -3.555846
H      -0.855915   -0.923549   -2.449317
H       4.931474   -0.670799    0.151979
H       3.366504   -1.458068    0.508736
H       4.299803   -1.941197   -0.934421
