25

C      -0.474215    1.401995    0.083798
C       0.043118   -0.035831    0.101763
C       0.768635   -0.479363   -1.181802
C       1.573345   -1.736020   -0.773361
C       1.670505   -1.726945    0.791999
C       0.786684   -2.839463    1.388660
C       3.112553   -1.924830    1.278051
C       1.089879   -0.343179    1.193779
O       2.149862    0.612027    1.178089
H       0.337444    2.113338   -0.105797
H      -1.215143    1.541952   -0.709814
H      -0.955068    1.672587    1.031428
H      -0.811514   -0.703142    0.275621
H       0.079921   -0.663142   -2.011746
H       1.449904    0.318169   -1.496257
H       1.076277   -2.650329   -1.113966
H       2.567418   -1.734617   -1.228951
H       1.133264   -3.821836    1.050372
H       0.824784   -2.831374    2.483687
H      -0.261704   -2.742183    1.088281
H       3.775162   -1.158354    0.873260
H       3.175711   -1.878576    2.370867
H       3.483154   -2.906885    0.963227
H       0.639164   -0.380300    2.197483
H       1.788057    1.459133    1.453960
