16

C       0.023576    1.501660    0.081909
C       1.323164    0.731918   -0.001020
N       2.048138    0.344877    1.216578
C       1.130845   -0.431269    1.931411
C      -0.025030   -0.746933    1.255748
C      -0.712221   -1.611184    2.129289
N      -0.035359   -1.804296    3.263774
N       1.107683   -1.060528    3.120543
C      -0.014860   -0.012982   -0.038059
H      -0.273636    1.939892    1.028814
H      -0.239796    2.083337   -0.795336
H       1.946984    0.843630   -0.880237
H       2.470065    1.119770    1.715065
H      -1.664725   -2.104640    2.001024
H       1.786385   -1.066846    3.861278
H      -0.378170   -0.464556   -0.953658
