10

O      -0.070687   -0.009754   -0.254681
C      -0.035790    1.156993   -0.054918
C      -1.019225    2.276023    0.289630
O       0.062853    3.235441    0.258043
C       1.075536    2.262406   -0.056660
C       2.112787    2.137904    0.960650
N       2.925390    2.017565    1.773447
H      -1.787995    2.474308   -0.466142
H      -1.484016    2.192944    1.279378
H       1.528940    2.431412   -1.041670
