20

C      -0.317461    1.539624    0.074480
C       0.019498    0.049544   -0.058944
C       0.792012   -0.361839   -1.350283
C       2.174127   -0.799608   -0.846242
O       2.938392   -1.573611   -1.726899
C       2.853861    0.369132   -0.089563
N       2.323684   -0.120100    1.231771
C       0.887761   -0.510655    1.067330
C       1.934160   -1.412139    0.560075
H       0.577554    2.167630    0.053745
H      -0.976346    1.864690   -0.737414
H      -0.832918    1.735641    1.020632
H      -0.927518   -0.502806   -0.027445
H       0.305175   -1.206402   -1.849379
H       0.866039    0.460961   -2.072044
H       2.982207   -1.117169   -2.573827
H       3.940862    0.255492   -0.074426
H       2.594075    1.398926   -0.359548
H       0.425676   -0.689420    2.033607
H       2.230353   -2.389737    0.920757
