16

O       0.115395    1.368657   -0.264076
C       0.080569   -0.020076   -0.138282
C      -1.371572   -0.493508   -0.045784
O      -2.286911    0.316871   -0.079858
N      -1.579065   -1.822440    0.062733
C      -0.689850   -2.974733    0.259222
C      -1.981636   -3.805480    0.469558
O      -2.207683   -4.951357    0.692624
C      -2.842513   -2.539213    0.269323
H      -0.819266    1.638106   -0.253016
H       0.563948   -0.513039   -0.997530
H       0.623532   -0.353544    0.761982
H      -0.095040   -3.262812   -0.615558
H      -0.037173   -2.918294    1.138993
H      -3.411122   -2.217282    1.149190
H      -3.508800   -2.558960   -0.600072
