21

C       0.187923    1.461712   -0.513976
C       0.240067   -0.027501   -0.262812
C       1.544246   -0.738449   -0.096420
C       0.638849   -0.553406    1.105882
C       0.883192    0.193745    2.429179
C       0.210739   -0.993817    3.205070
C      -1.009650   -0.701908    4.072047
C      -0.061453   -1.658176    1.836080
O      -0.640463   -2.652655    1.490979
H       1.005825    1.980737   -0.004080
H       0.273087    1.677909   -1.584439
H      -0.754558    1.893859   -0.160825
H      -0.552465   -0.605721   -0.732160
H       1.646030   -1.748319   -0.480212
H       2.454119   -0.145498   -0.111951
H       1.930263    0.373499    2.682888
H       0.332337    1.134324    2.521150
H       0.943880   -1.582075    3.769421
H      -1.746054   -0.101311    3.527130
H      -1.496404   -1.634091    4.373990
H      -0.730107   -0.152331    4.976603
