18

C       0.076927    1.505629    0.023445
N       1.273791    0.647723   -0.025059
C      -0.055643    0.031368    0.004574
C      -0.420279   -0.840612    1.205982
O      -1.307352   -1.840993    0.708177
C      -0.926733   -2.114724   -0.628961
C      -0.546302   -0.754055   -1.200705
C      -1.129925   -0.187841   -2.419933
O       0.218822   -0.690636   -2.399976
H      -0.065228    2.043731    0.957568
H      -0.199147    2.069510   -0.864187
H       1.621336    0.604979   -0.983047
H       0.493564   -1.289840    1.622465
H      -0.942091   -0.301422    2.000660
H      -0.054267   -2.787546   -0.678481
H      -1.768610   -2.591487   -1.135927
H      -1.834543   -0.779524   -3.003317
H      -1.223689    0.889603   -2.538943
