13

O      -0.099150   -0.021477   -0.000941
C      -0.002834    1.187500    0.008062
C       1.235138    1.908725   -0.000239
C       2.264796    2.547395   -0.006727
C       3.475446    3.264208   -0.014818
C       4.751332    2.733303   -0.033770
N       5.591538    3.809312   -0.034588
C       4.813773    4.937854   -0.016597
N       3.539854    4.651891   -0.004352
H      -0.900829    1.838508    0.023851
H       5.104179    1.716087   -0.046059
H       6.597804    3.774452   -0.046348
H       5.241857    5.929100   -0.013484
