23

C      -0.101064    1.605919    0.008803
C      -0.001193    0.097653   -0.006433
C       0.662372   -0.681808   -1.127467
C       1.386124    0.020736   -2.274777
C       2.924688   -0.000483   -2.137750
C       3.585388    0.920110   -3.171709
C       3.344965    0.352890   -0.726444
C       2.604379    0.069713    0.346816
C       1.306511   -0.641889    0.241063
H       0.838607    2.082013   -0.281877
H      -0.885170    1.959826   -0.670596
H      -0.349907    1.963300    1.014185
H      -0.872114   -0.395785    0.419036
H       0.174087   -1.612774   -1.398430
H       1.101065   -0.443041   -3.225731
H       1.067250    1.067430   -2.345534
H       3.269057   -1.026988   -2.340930
H       3.291333    1.963696   -3.010204
H       4.677713    0.868309   -3.110583
H       3.293185    0.644040   -4.190451
H       4.306168    0.849046   -0.607277
H       2.955570    0.339856    1.340536
H       1.227287   -1.533753    0.858685
