19

C      -0.196807    1.513971   -0.067359
C       0.005954   -0.001494    0.000602
C       0.717357   -0.560590   -1.235408
C       0.893274   -2.081877   -1.179474
O      -0.339023   -2.797756   -1.176421
C      -0.534810   -3.314711   -2.470000
O       0.737640   -3.380001   -3.106214
C       1.622263   -2.617108   -2.408076
O       2.749306   -2.425124   -2.752746
H       0.760401    2.039808   -0.153816
H      -0.806744    1.794184   -0.933314
H      -0.702041    1.885954    0.829042
H       0.589262   -0.256690    0.895213
H      -0.961199   -0.504813    0.110533
H       0.158052   -0.295475   -2.142622
H       1.715229   -0.118105   -1.342002
H       1.449209   -2.362156   -0.277700
H      -0.950942   -4.323838   -2.398492
H      -1.193525   -2.673437   -3.074516
