18

O       0.390808    0.912606   -0.683958
C       0.141803   -0.191996    0.127238
C       0.048411   -0.053174    1.674322
C      -1.119751   -1.079469    1.647130
C      -1.307246   -0.767762    0.136867
O      -2.161488    0.342165   -0.079867
C      -1.637736   -1.905076   -0.843532
C      -3.022660   -2.344223   -0.687268
N      -4.129244   -2.633264   -0.517525
H      -0.391983    1.475578   -0.624964
H       0.863965   -0.967470   -0.148660
H       0.936936   -0.302467    2.256364
H      -0.298930    0.944103    1.952889
H      -0.782396   -2.105765    1.815997
H      -1.982895   -0.882330    2.285968
H      -3.061458    0.098735    0.167067
H      -1.490115   -1.544792   -1.867708
H      -0.966324   -2.755564   -0.686786
