13

C       0.022467    1.374045    0.156779
N       0.329395   -0.046707    0.112628
C       0.650850   -0.581513   -0.962428
O       0.781093   -0.035254   -2.221196
N       1.168840   -1.047044   -3.122097
C       1.249739   -2.106725   -2.394732
O       0.955633   -1.922501   -1.081958
C       1.608122   -3.390339   -2.852114
C       1.912239   -4.489204   -3.229837
H       0.698012    1.861825    0.867203
H       0.103003    1.884396   -0.809732
H      -0.995322    1.506229    0.538382
H       2.181960   -5.460140   -3.568805
