14

C      -0.018906    1.567307    0.014938
C      -0.009790    0.038580    0.008345
O       0.597315   -0.467051   -1.204790
C      -0.222587   -0.639367   -2.253225
N      -1.458627   -0.366146   -2.239808
C       0.502235   -1.175352   -3.390646
N       1.015044   -1.596984   -4.336277
C       0.776179   -0.514566    1.117153
N       1.367970   -0.922567    2.020421
H       0.995254    1.954020   -0.105502
H      -0.650965    1.926653   -0.798763
H      -0.424486    1.928513    0.963352
H      -1.032302   -0.345634    0.067681
H      -1.908239   -0.581328   -3.125949
