14

O       0.194836    1.028005    0.814997
C      -0.018873    0.034745   -0.209412
C      -1.403430   -0.520239   -0.117337
C      -2.148156   -0.590118    1.033770
O      -1.906871   -0.202202    2.301735
N      -3.338543   -1.171915    0.687582
C      -3.269414   -1.433050   -0.662253
N      -2.125978   -1.049767   -1.169901
H      -0.339076    1.794303    0.575858
H       0.168182    0.443722   -1.210184
H       0.750225   -0.723271   -0.019684
H      -1.061534    0.277981    2.256571
H      -4.108028   -1.345270    1.312516
H      -4.084107   -1.896558   -1.196750
