16

O       0.131127    1.554001    0.037555
C       0.021884    0.155783    0.068037
C       0.640090   -0.431507   -1.196187
O       1.118347    0.269866   -2.054446
C       0.711890   -0.445418    1.264932
C       1.706936    0.166401    1.994838
N       2.100884   -0.707092    2.973850
C       1.380249   -1.870101    2.883657
C       0.507789   -1.739991    1.829003
H       0.531691    1.758975   -0.822993
H      -1.039767   -0.154080    0.069938
H       0.639792   -1.536869   -1.269593
H       2.130297    1.151967    1.903985
H       2.794403   -0.510465    3.673882
H       1.541929   -2.681679    3.574443
H      -0.206284   -2.482187    1.504668
