15

N       0.088236    1.404140    0.097334
C      -0.000241    0.022234    0.019155
C      -1.126758   -0.797046   -0.018139
N      -2.451100   -0.307915   -0.070311
N      -0.764482   -2.101038   -0.042491
C       0.561488   -2.122226   -0.016186
N       1.060260   -0.826540    0.040762
C       1.459253   -3.260554   -0.047865
O       1.138033   -4.426530   -0.106297
H       0.796610    1.812237   -0.501628
H      -0.816362    1.813692   -0.110058
H      -2.838436   -0.177355    0.860799
H      -3.043168   -0.985538   -0.540281
H       2.031245   -0.567915    0.113597
H       2.535890   -2.958824   -0.008925
