21

C       0.160064    1.576118    0.013362
C       0.190143    0.059115    0.014884
O       1.036966   -0.393905   -1.043429
C       1.366256   -1.745758   -0.759089
C       1.589474   -1.796020    0.750528
C       2.804428   -1.005034    1.269418
O       1.972606    0.075307    1.738661
C       0.761953   -0.592287    1.293180
C      -0.228262   -0.772881    2.424274
H       1.149503    1.966080    0.259417
H      -0.138848    1.945222   -0.970972
H      -0.557696    1.946629    0.751850
H      -0.827259   -0.343801   -0.140154
H       0.543241   -2.420972   -1.048044
H       2.249909   -2.007756   -1.348782
H       1.420454   -2.776159    1.197022
H       3.359409   -1.473670    2.091142
H       3.510972   -0.674070    0.498469
H      -0.594872    0.199115    2.771913
H      -1.089379   -1.366255    2.099853
H       0.243381   -1.275637    3.272748
