16

O      -0.046984    1.363010    0.040220
C       0.004670   -0.052355   -0.005844
C       0.630682   -0.668317    1.295703
O      -0.083600   -1.850753    1.592671
C      -1.364355   -1.743424    1.022475
C      -2.173857   -0.505429    1.284427
C      -1.392003   -0.652559   -0.010753
C       0.744928   -0.490159   -1.206755
N       1.354915   -0.807559   -2.135825
H       0.845965    1.710200   -0.070025
H       1.688802   -0.920989    1.194609
H       0.517585    0.090557    2.081600
H      -1.831836   -2.711010    0.891747
H      -3.251550   -0.590213    1.202903
H      -1.835744    0.212348    2.022373
H      -1.907317   -0.744260   -0.957489
