13

O       0.067098    1.318912    0.101244
C       0.060305   -0.016966    0.057695
N       0.089962   -0.584754   -1.152840
C       0.082628   -1.912394   -1.174145
C       0.046169   -2.689434   -0.007888
C       0.017784   -1.959172    1.191746
N       0.024416   -0.633484    1.238255
C       0.038519   -4.107622   -0.037335
C       0.032020   -5.311533   -0.062201
H       0.093968    1.621656   -0.817044
H       0.106430   -2.389235   -2.150397
H      -0.011335   -2.481618    2.144601
H       0.026265   -6.373236   -0.083283
