21

C      -0.086803    1.609330    0.289816
C      -0.093131    0.142718   -0.143006
N      -1.424183   -0.442940   -0.107790
N      -2.004589   -0.632182    1.098325
C      -3.191700   -1.163113    0.824150
C      -3.382708   -1.322041   -0.560386
C      -2.219430   -0.846802   -1.141523
C      -1.844044   -0.744392   -2.589000
C      -1.995945    0.668997   -3.180769
H       0.935997    1.998440    0.288721
H      -0.691457    2.223471   -0.384349
H      -0.496861    1.701129    1.298003
H       0.294029    0.033030   -1.158594
H       0.546272   -0.447274    0.520921
H      -3.861672   -1.419418    1.632155
H      -4.236165   -1.732385   -1.076585
H      -0.816898   -1.097884   -2.743285
H      -2.485527   -1.436022   -3.144122
H      -3.022291    1.028611   -3.063425
H      -1.334411    1.385478   -2.684395
H      -1.751519    0.669862   -4.247605
