13

O       0.027505    1.426652    0.007407
C      -0.010172    0.031814    0.002420
C      -1.432701   -0.464680    0.012289
N      -2.422735    0.357713    0.022423
C      -3.712630   -0.164973    0.031229
O      -4.715934    0.477377    0.040875
O      -3.866801   -1.572370    0.028202
N      -2.804244   -2.435682    0.017440
C      -1.635575   -1.899850    0.009886
H       0.947992    1.705565   -0.003149
H       0.479788   -0.409210   -0.885688
H       0.494387   -0.415841    0.879003
H      -0.804896   -2.598633    0.001449
