17

C       0.187714    1.532502    0.050920
C       0.092668    0.022824   -0.017116
C       0.835868   -0.637532   -1.218235
N       1.399394   -1.782646   -0.545046
N       2.132260   -2.844590   -0.960357
C       2.514027   -3.401222    0.189233
C       2.060712   -2.703257    1.343441
C       1.355871   -1.657079    0.794701
O       0.693832   -0.549678    1.188958
H       1.233367    1.852632    0.073037
H      -0.297036    1.980061   -0.822546
H      -0.310407    1.906443    0.948927
H      -0.955877   -0.298285   -0.021731
H       0.150126   -0.920340   -2.020369
H       1.617760    0.011983   -1.632160
H       3.105406   -4.305636    0.165744
H       2.222919   -2.936384    2.380975
