17

C       0.257437    1.362654    0.017096
C      -0.010520   -0.135727    0.143588
N      -1.448691   -0.468774    0.081879
C      -2.025770   -0.659059   -1.180894
N      -1.334093   -0.544213   -2.239557
C      -2.272151   -0.620927    1.176739
O      -3.444552   -0.949507    1.112381
C      -1.757376   -0.335324    2.596806
O      -0.784467    0.294035    2.913540
H       1.336976    1.541668    0.028854
H      -0.141491    1.747163   -0.924400
H      -0.185972    1.910169    0.851915
H       0.450768   -0.670252   -0.688206
H       0.392300   -0.522656    1.076914
H      -3.085164   -0.902829   -1.110784
H      -1.915719   -0.720900   -3.056566
H      -2.482956   -0.742321    3.329084
