15

C      -0.036403    1.524413   -0.016574
C      -0.008026    0.017774    0.006545
C      -0.101882   -0.726466   -1.165754
N      -0.081151   -2.068965   -1.195531
C       0.033226   -2.687375   -0.058906
F       0.056265   -4.033721   -0.064735
C       0.136786   -2.071833    1.195588
O       0.253485   -2.790886    2.338484
C       0.114089   -0.687429    1.211594
H       0.879729    1.947973    0.409518
H      -0.135096    1.899856   -1.038266
H      -0.875635    1.917330    0.567864
H      -0.198107   -0.230132   -2.127167
H       0.248012   -3.726028    2.098952
H       0.191766   -0.171126    2.162859
