16

O      -0.155547    1.402868    0.065461
C      -0.124717    0.006510    0.017376
C      -0.484472   -0.872579    1.195369
C      -1.554598   -0.151249    2.040856
C      -2.500313   -0.115177    0.784940
C      -1.392158   -0.773383   -0.044878
O      -1.628395   -1.744638   -0.995527
C      -2.063622   -0.921407    3.162971
N      -2.464332   -1.535241    4.057176
H       0.638057    1.708061    0.518893
H       0.664415   -0.422116   -0.601604
H       0.153138   -1.672705    1.548968
H      -1.248475    0.837940    2.391511
H      -3.350012   -0.787379    0.907208
H      -2.840129    0.873954    0.471570
H      -1.667176   -1.325163   -1.862503
