20

C      -0.138885    1.285754    0.132946
N      -0.025191   -0.135268   -0.115469
C       0.677662   -0.637619   -1.164311
O       1.285960    0.012612   -1.986258
O       0.596670   -1.996825   -1.160589
C       1.327679   -2.688406   -2.206439
C       2.783932   -2.867602   -1.796016
C       0.577142   -4.004258   -2.395502
O       0.563085   -4.796648   -1.222241
H       0.458964    1.798794   -0.621026
H      -1.177284    1.627881    0.053730
H       0.240974    1.548653    1.126559
H      -0.492545   -0.792505    0.485385
H       1.261588   -2.087702   -3.118001
H       2.853512   -3.485299   -0.897481
H       3.337162   -3.365793   -2.598672
H       3.246720   -1.895689   -1.613952
H      -0.444110   -3.786231   -2.743807
H       1.076393   -4.596551   -3.169125
H       0.186454   -4.244365   -0.528233
