17

C       0.020097    1.586965    0.262913
C       0.001876    0.066969    0.016392
C      -1.373455   -0.506881   -0.091147
C      -2.149904   -0.791125   -1.197403
O      -1.792230   -0.616590   -2.503419
C      -3.364698   -1.283996   -0.676900
O      -4.407315   -1.686997   -1.443750
N      -3.372861   -1.315013    0.644560
N      -2.153257   -0.826634    0.982839
H       1.047988    1.956319    0.332741
H      -0.480242    2.116573   -0.552668
H      -0.496358    1.843361    1.193360
H       0.532933   -0.158461   -0.913816
H       0.551725   -0.442356    0.818387
H      -2.506994   -0.959953   -3.049878
H      -5.103422   -1.990485   -0.848723
H      -1.898401   -0.790407    1.953353
