21

C      -0.040829    1.549618   -0.015217
C       0.018051    0.016779    0.039990
C       0.884582   -0.446668    1.219826
C      -1.406006   -0.564685    0.086198
C      -1.465894   -2.102250   -0.053892
C      -2.827233   -2.612793   -0.089130
C      -3.968273   -3.016437   -0.116014
C      -5.250710   -3.470550   -0.146495
C      -6.388869   -3.873841   -0.173549
H       0.962725    1.981006   -0.089138
H      -0.621225    1.896908   -0.876234
H      -0.510408    1.955660    0.888703
H       0.492238   -0.334837   -0.888416
H       0.437467   -0.142995    2.174135
H       1.013308   -1.532982    1.242086
H       1.883533   -0.001798    1.166323
H      -1.893677   -0.273504    1.025058
H      -2.002593   -0.123941   -0.720399
H      -0.941606   -2.405153   -0.970939
H      -0.928064   -2.579385    0.774595
H      -7.389424   -4.227376   -0.197225
