17

C      -0.090735    1.386354   -0.092205
C       1.212492    0.706126    0.064722
N      -0.090135   -0.077297    0.056904
C       0.299865   -0.608863   -1.299458
C       1.666553    0.114103   -1.263565
C       2.315655    0.926627   -2.402417
C       3.505831   -0.032485   -2.220908
O       2.806676   -0.763800   -1.189673
H      -0.493392    1.905543    0.772271
H      -0.366683    1.822847   -1.051168
H       1.833696    0.790363    0.950588
H       0.435057   -1.691465   -1.256629
H      -0.402752   -0.349420   -2.099580
H       1.802771    0.855578   -3.363562
H       2.504435    1.976729   -2.171516
H       3.747795   -0.670123   -3.078756
H       4.429939    0.420827   -1.843028
