19

C       0.098034    1.514206   -0.058028
C      -0.018456    0.018969    0.013185
C      -1.190362   -0.648690    0.041913
C      -2.551696    0.003298    0.063742
C      -1.162646   -2.129446   -0.026279
O      -2.168042   -2.810134   -0.099003
C       0.214216   -2.784686   -0.084328
O       1.215735   -2.024451    0.555886
C       1.299319   -0.717144    0.043632
H       0.847314    1.808424   -0.803398
H      -0.846234    1.996868   -0.312250
H       0.441673    1.919735    0.902907
H      -2.763896    0.532939   -0.872186
H      -3.314102   -0.766915    0.188919
H      -2.643758    0.726415    0.879594
H       0.165537   -3.754609    0.414589
H       0.463679   -2.962586   -1.147125
H       1.734031   -0.718974   -0.976165
H       2.008432   -0.180024    0.684257
