18

C      -0.127343    1.432783    0.383807
C       0.046743   -0.055212    0.175495
C       1.379211   -0.595390   -0.313708
C       0.937878   -0.871193    1.087219
O       1.663869   -0.240171    2.100848
C       0.970794   -0.169527    3.326124
C       1.882259    0.494216    4.342976
O       1.554852    0.734679    5.474225
H       0.761558    1.864729    0.851488
H      -0.290412    1.946876   -0.569310
H      -0.986793    1.649968    1.027849
H      -0.836262   -0.573138   -0.190414
H       1.399886   -1.412982   -1.025266
H       2.184415    0.123563   -0.424307
H       0.619955   -1.882534    1.344645
H       0.037985    0.409012    3.246599
H       0.699734   -1.171781    3.698617
H       2.891496    0.738017    3.943712
