17

O       0.100764    1.325248    0.663762
C       0.150580    0.020064    0.169853
C       0.396816   -1.158497    1.170797
C      -1.020011   -1.719844    0.899682
C      -2.135750   -1.035487    1.709894
O      -2.247971    0.044029    0.732063
C      -1.280894   -0.587341   -0.125634
C       1.037768    0.001028   -1.054879
O       1.608864   -0.976191   -1.468659
H      -0.803488    1.443014    0.997237
H       1.193061   -1.813875    0.812270
H       0.604742   -0.844167    2.196040
H      -1.127885   -2.779786    0.680479
H      -3.077775   -1.591052    1.767818
H      -1.867773   -0.663753    2.705187
H      -1.624184   -0.686923   -1.157243
H       1.088224    0.985374   -1.569008
