15

O      -0.045029    1.358589    0.009611
C       0.034256    0.015490    0.002360
C       1.255109   -0.605976   -0.007869
C       1.597325   -1.981393   -0.016846
C       0.777751   -3.072196   -0.018247
C      -0.642587   -3.071744   -0.010821
C      -1.518692   -2.029471   -0.000193
C      -1.333434   -0.583720    0.007580
O      -2.302544    0.164923    0.018286
H       0.844002    1.733612    0.006072
H       2.112306    0.068626   -0.009278
H       2.666231   -2.177911   -0.023602
H       1.254708   -4.047437   -0.025959
H      -1.098138   -4.059828   -0.014117
H      -2.578083   -2.272622    0.004023
