15

O      -0.219682    1.307428    0.653817
N       0.006642   -0.055559    0.410861
C      -0.980265   -0.578146   -0.199164
C      -0.936545   -2.037351   -0.555316
N      -2.297007   -2.554204   -0.446571
C      -3.329042   -1.945131   -1.123747
O      -4.347508   -2.489982   -1.456619
O      -3.105265   -0.630455   -1.416962
C      -2.244528    0.145330   -0.579110
H       0.585772    1.575516    1.108912
H      -0.534542   -2.164494   -1.573101
H      -0.279888   -2.572290    0.132824
H      -2.414834   -3.553481   -0.375949
H      -2.782312    0.447713    0.329344
H      -2.014644    1.056602   -1.136619
