20

C       0.930411   -2.346197    0.491963
C       0.251916   -0.994475    0.237261
O       0.484717   -0.075741    1.288633
C       0.620981   -0.395032   -1.121967
C      -0.159395   -0.858756   -2.310426
N      -0.361483    0.491666   -1.801780
C       2.042948    0.094509   -1.266877
C       2.492224    0.618216   -2.612275
O       2.795223    0.078826   -0.309566
H       0.661491   -3.077417   -0.277706
H       2.017547   -2.237691    0.503505
H       0.611257   -2.732043    1.463763
H      -0.836076   -1.151386    0.228140
H       1.435159    0.103516    1.266452
H       0.302718   -0.921206   -3.290907
H      -0.915638   -1.617157   -2.120308
H      -1.201230    0.548620   -1.229473
H       1.721944    1.255817   -3.052505
H       3.427548    1.164834   -2.489367
H       2.664235   -0.220986   -3.296582
