21

C       0.054187    1.520211    0.022718
C       0.009980    0.025116   -0.032266
C      -1.066371   -0.773596    0.013704
C      -2.513387   -0.407848    0.131550
C      -0.666595   -2.248239   -0.026145
C       0.824806   -2.209778   -0.436925
C       1.297369   -0.764645   -0.148645
C      -0.876383   -2.815570    1.367290
O      -1.848620   -3.430150    1.724947
H       0.670973    1.861298    0.864445
H       0.516409    1.931489   -0.884007
H      -0.935915    1.968852    0.128704
H      -2.663553    0.664799    0.273174
H      -3.065481   -0.709481   -0.768129
H      -2.984490   -0.933675    0.970280
H      -1.297170   -2.826318   -0.710754
H       1.422889   -2.962471    0.086508
H       0.903965   -2.426954   -1.505377
H       1.950732   -0.374041   -0.938882
H       1.880078   -0.696163    0.780885
H      -0.053993   -2.573906    2.082906
