19

O       0.112548    0.164559    0.499033
C       0.038371    1.312488    0.118785
N      -1.086358    2.117953    0.140993
C      -0.855988    3.408980   -0.478472
C       0.684137    3.491098   -0.448225
C       1.348855    4.098818    0.799439
C       2.699237    3.353067    0.857785
C       2.412633    1.955915    0.229935
N       1.089912    2.081383   -0.394537
H      -1.991692    1.679092    0.162101
H      -1.227013    3.451436   -1.511652
H      -1.322491    4.224328    0.084992
H       1.068291    3.973815   -1.353869
H       1.462557    5.184595    0.742629
H       0.740231    3.865987    1.680696
H       3.450254    3.885283    0.265209
H       3.088642    3.273042    1.875136
H       3.171034    1.692325   -0.513577
H       2.370511    1.147356    0.964060
