20

C      -0.024981    1.507612   -0.307631
C      -0.014503    0.011395   -0.088063
C       1.184807   -0.777198   -0.414456
O       0.880144   -0.449585    0.942132
C      -1.353035   -0.666283   -0.074789
C      -1.692361   -2.152029    0.181934
N      -3.090280   -1.542616   -0.036929
C      -2.572949   -0.392023    0.843873
C      -2.422718   -0.774137   -1.191009
H       0.989773    1.909344   -0.258175
H      -0.453167    1.755821   -1.284666
H      -0.627680    2.005171    0.459464
H       1.090885   -1.830920   -0.673107
H       2.055926   -0.274671   -0.833933
H      -1.418242   -2.885698   -0.581677
H      -1.537416   -2.544454    1.189338
H      -2.485757   -0.655030    1.901097
H      -3.126613    0.541022    0.706879
H      -2.963651    0.131124   -1.480776
H      -2.197410   -1.399800   -2.059449
