17

C       0.074154    1.428865   -0.140414
N       0.036766   -0.020006    0.058536
C      -1.144220   -0.600529    0.854341
C      -0.206704   -1.846308    1.065412
O       0.094986   -2.635037   -0.028981
C       0.678596   -0.576095    1.341376
C      -0.501649   -0.016547    2.101791
N      -0.692947    0.703833    3.118536
O      -2.062863    1.025248    3.263985
H       1.070553    1.703097   -0.500345
H      -0.649098    1.691659   -0.918354
H      -0.147994    2.016858    0.761603
H      -2.169083   -0.550209    0.493711
H      -0.425924   -2.481668    1.922671
H       0.275181   -2.003517   -0.743130
H       1.746460   -0.498160    1.537253
H      -2.057334    1.551599    4.070698
