25

C      -0.005183    1.573394    0.207220
C      -0.041649    0.063406   -0.061615
C       0.691074   -0.425840   -1.338489
C      -0.017313    0.092317   -2.603270
C       2.151153    0.066200   -1.333491
C       0.712769   -2.001710   -1.321147
C      -0.671011   -2.681817   -1.216923
C       1.430527   -2.554234   -2.472011
C       1.992354   -3.031752   -3.422758
H       1.011100    1.937170    0.382532
H      -0.428021    2.147410   -0.623196
H      -0.594725    1.809164    1.098926
H       0.387261   -0.456426    0.806403
H      -1.091433   -0.245338   -0.113791
H       0.044101    1.182624   -2.666596
H       0.446407   -0.318877   -3.504438
H      -1.078012   -0.178061   -2.615149
H       2.667582   -0.234714   -0.414220
H       2.703569   -0.350581   -2.179485
H       2.203099    1.155875   -1.405586
H       1.279583   -2.283615   -0.421640
H      -0.548465   -3.767960   -1.221561
H      -1.183150   -2.404936   -0.293121
H      -1.310316   -2.418274   -2.063498
H       2.499351   -3.452059   -4.255687
