23

C      -2.112801   -0.827562    2.355995
C      -1.658746   -1.902292    1.365171
C      -0.414663   -1.562737    0.556234
C      -0.026811   -0.165007    0.288928
O       0.628388   -0.915956    1.312822
C       0.135061   -2.624645   -0.374724
C      -0.584651   -3.907748   -0.722398
C      -0.372086   -2.859617   -1.784757
C      -1.536795   -2.085446   -2.361944
H      -1.277597   -0.506048    2.983243
H      -2.518869    0.052783    1.848028
H      -2.900115   -1.220137    3.005774
H      -1.445193   -2.831810    1.908255
H      -2.478716   -2.141519    0.677291
H       0.580382    0.051932   -0.589420
H      -0.640735    0.662393    0.638885
H       1.210972   -2.707837   -0.254614
H      -0.007568   -4.825400   -0.758593
H      -1.596727   -4.041968   -0.355694
H       0.406508   -3.079870   -2.510946
H      -2.310402   -1.891448   -1.613144
H      -1.214526   -1.116511   -2.759431
H      -2.005871   -2.640547   -3.181740
