20

C      -0.618570    1.370117   -0.009436
C       0.061573    0.005885   -0.068594
C       1.365758   -0.059218   -0.887990
C       2.054773   -1.315787   -0.332519
O       1.454183   -1.575598    0.954215
C       0.550534   -0.560598    1.267346
O       1.187948    0.501892    1.986259
C       1.597852    0.212394    3.238523
N       2.252645    1.065462    3.899219
H       0.054459    2.123860    0.404957
H      -0.924379    1.689290   -1.010640
H      -1.516038    1.338725    0.617090
H      -0.640264   -0.737035   -0.468215
H       1.187921   -0.121620   -1.963791
H       1.967866    0.832663   -0.692029
H       1.882680   -2.197803   -0.959739
H       3.134491   -1.189171   -0.206361
H      -0.233223   -0.996011    1.898141
H       1.299257   -0.787466    3.578222
H       2.463242    0.695734    4.824242
