15

O      -0.347949    0.287752    0.496897
C      -0.101589    1.377639    0.105228
O      -0.976393    2.274733   -0.494669
C       0.092831    3.236928   -0.742284
C       0.252954    4.329292    0.356746
C      -0.662738    4.186906    1.582752
O       0.232922    3.208007    2.181894
C       1.195962    3.372885    1.130183
C       1.101974    2.310525   -0.024051
H       0.134332    3.522430   -1.791831
H       0.533708    5.322401    0.011124
H      -0.722653    5.090109    2.199956
H      -1.662237    3.779892    1.409574
H       2.197409    3.615620    1.492192
H       2.022751    1.917267   -0.449509
