21

C       0.000407    1.499084    0.245070
C       1.314537    0.782141    0.028697
C       0.012677    0.000945    0.037249
C      -0.094688   -0.635790   -1.365962
C       1.394622   -0.845920   -1.723795
C       1.913330    0.569144   -1.379152
C       1.389364    1.517020   -2.468998
O      -0.028949    1.516935   -2.593635
C      -0.695082    0.266225   -2.455306
H      -0.187965    1.824169    1.264508
H      -0.398729    2.155939   -0.513373
H       2.003274    0.722111    0.864518
H      -0.250304   -0.630177    0.879321
H      -0.671884   -1.564764   -1.339265
H       1.851828   -1.600765   -1.076526
H       1.562398   -1.136946   -2.767812
H       3.004833    0.641492   -1.363414
H       1.659036    2.556715   -2.255932
H       1.855278    1.239164   -3.429708
H      -0.678386   -0.281188   -3.413065
H      -1.737287    0.518713   -2.233622
