16

C      -0.102992    1.557492   -0.126662
C      -0.004863    0.054928   -0.019978
O      -1.167304   -0.639087   -0.378020
C       1.299883   -0.651723   -0.237689
C       0.684177   -0.604034    1.169018
C       1.292836    0.163993    2.200595
C       1.808848    0.812325    3.083459
C       2.393342    1.546305    4.072535
N       2.892781    2.174722    4.913513
H       0.801019    2.046819    0.243037
H      -0.243739    1.853656   -1.172778
H      -0.957307    1.922401    0.450616
H      -1.311397   -0.510735   -1.322789
H       1.275106   -1.617949   -0.727569
H       2.192841   -0.060284   -0.404287
H       0.203533   -1.521492    1.493997
