18

C      -0.226358    1.611380    0.111419
O       0.998974    0.939097   -0.168847
C      -0.189253    0.152313   -0.069230
C      -0.354420   -0.762089    1.118245
C      -0.226135   -2.234997    1.223500
C       0.947485   -2.929314    0.512041
C       1.834968   -1.991284   -0.259494
C       1.851094   -1.960976    1.240797
N       0.697775   -1.324435    2.001025
H      -0.311424    2.018235    1.118510
H      -0.609170    2.248152   -0.685051
H      -0.540163   -0.243571   -1.023060
H      -1.149491   -0.401652    1.772717
H      -0.978184   -2.818487    1.747965
H       1.012971   -4.006177    0.435876
H       2.715053   -2.489432   -0.659061
H       1.487378   -1.183297   -0.884238
H       2.747567   -2.130588    1.822275
