17

C       0.282716    1.518079   -0.044616
C       0.064806    0.029624    0.085837
O       0.850036   -0.765316   -0.851653
C       1.390265   -1.585236    0.190091
C       2.703727   -1.042326    0.758511
O       1.987781   -0.169948    1.674815
C       0.706376   -0.721343    1.288064
C      -0.116503   -1.149406    2.385703
C      -0.828289   -1.504143    3.287472
H       1.317801    1.777345    0.186813
H       0.051215    1.838276   -1.064922
H      -0.377538    2.057408    0.642447
H      -0.996789   -0.231727   -0.014254
H       1.257802   -2.654984    0.023639
H       3.308462   -1.774474    1.307655
H       3.324581   -0.489354    0.047341
H      -1.449862   -1.818330    4.089609
