19

O      -0.013156    1.465280    0.113004
C       0.004033    0.072593   -0.083204
C      -1.408825   -0.562107   -0.031233
C      -1.366794   -2.087400   -0.283423
C      -2.726471   -2.707344   -0.519400
C      -3.001849   -4.099924   -0.086768
N      -3.656293   -2.968303    0.588772
C      -2.011287   -0.247862    1.267645
N      -2.418392    0.016185    2.317676
H      -0.287955    1.639938    1.020626
H       0.415280   -0.095131   -1.083276
H       0.656135   -0.441335    0.639340
H      -2.017454   -0.078360   -0.804780
H      -0.736875   -2.259235   -1.165537
H      -0.870561   -2.579662    0.561597
H      -3.229443   -2.344030   -1.415079
H      -3.664592   -4.733193   -0.669457
H      -2.208846   -4.633476    0.432258
H      -3.210868   -2.776455    1.482966
