16

O       0.007003    1.320355    0.067844
C      -0.015768   -0.061890   -0.008714
C      -0.475732   -0.775416   -1.259807
C      -0.251774   -2.192029   -0.778560
C       0.894201   -2.285485    0.170129
N      -0.508938   -2.329501    0.698321
C      -0.340091   -0.917663    1.208031
C       1.074384   -0.853121    0.704354
O       2.171137   -0.245621    1.281201
H       0.784724    1.563902    0.587618
H      -1.525545   -0.576146   -1.497136
H       0.137448   -0.529650   -2.133471
H      -0.561627   -3.048213   -1.367292
H       1.574861   -3.122392    0.283900
H      -0.828505   -0.582578    2.113074
H       2.822285   -0.071755    0.589068
