16

C      -0.061901    1.479870    0.008516
C      -0.000602   -0.023621   -0.010681
N      -0.031182   -0.630446   -1.194584
C       0.023840   -1.973889   -1.171408
C       0.113162   -2.700261   -0.007495
O       0.167247   -4.064330    0.086655
C       0.142643   -1.962456    1.198030
N       0.270864   -2.606590    2.395388
N       0.078520   -0.634916    1.182831
H       0.839342    1.893347    0.473168
H      -0.153463    1.865044   -1.007251
H      -0.912854    1.820866    0.606881
H      -0.007089   -2.483958   -2.135249
H       0.116074   -4.446939   -0.795973
H       0.053059   -3.588600    2.424053
H       0.062354   -2.059721    3.215106
