17

O      -0.091894    1.407236    0.010473
C       0.023952    0.030557    0.002070
C       0.687333   -0.879607    1.110642
C       1.314605   -1.773972   -0.018416
C       0.032325   -2.680639   -0.012642
C      -0.599782   -1.781336    1.108895
C      -1.251766   -0.869767    0.007826
C      -0.618280   -1.769330   -1.113725
C       0.668712   -0.867522   -1.127155
H       0.793152    1.790005    0.005335
H       1.205284   -0.519311    1.998962
H       2.341291   -2.135930   -0.028911
H       0.033814   -3.769132   -0.018532
H      -1.108202   -2.148112    1.998569
H      -2.269860   -0.485685    0.018373
H      -1.141470   -2.126521   -1.998723
H       1.171841   -0.497610   -2.020028
