19

C       0.135971    1.529581    0.026596
C       0.119427    0.007075    0.196430
O       0.653463   -0.391105    1.451944
C      -1.291485   -0.563173    0.061572
O      -2.018558   -0.089364    1.160376
C      -2.086184   -0.630802   -1.286514
C      -1.187060   -1.780368   -1.783191
C      -1.557246   -2.060152   -0.313318
O      -2.960162   -1.654135   -0.637513
H       1.144343    1.906802    0.214281
H      -0.159716    1.818633   -0.988171
H      -0.554056    2.001026    0.731467
H       0.777460   -0.443064   -0.551367
H      -0.032308   -0.196905    2.103326
H      -2.890099   -0.504931    1.076833
H      -2.585876    0.160932   -1.845333
H      -1.676680   -2.444740   -2.494318
H      -0.148705   -1.574702   -2.044030
H      -1.426961   -2.962048    0.284107
