15

C      -0.615293    1.892412   -0.743561
N      -0.254868    0.508302   -0.933284
C      -0.606579   -0.418682   -0.137722
C      -1.428269   -0.351460    1.122438
N      -0.142350   -1.698502   -0.516980
C      -0.309721   -2.924044    0.072495
O      -0.920106   -3.169433    1.088273
H       0.299645    2.494274   -0.686432
H      -1.162760    2.242372   -1.626974
H      -1.223568    2.117884    0.141825
H      -1.739780    0.670336    1.333454
H      -2.310379   -0.989822    1.036250
H      -0.858632   -0.740000    1.969541
H       0.400279   -1.665569   -1.370019
H       0.205429   -3.706511   -0.519183
