15

C       0.012580    1.540013   -0.037137
N       1.393830    2.045224    0.035652
C       2.368641    1.265259    0.261383
N       2.316744   -0.114534    0.496296
C       1.077436   -0.668972    0.232092
C      -0.050000    0.036677   -0.019070
C      -1.065777   -0.962263   -0.212755
C      -0.459115   -2.167755   -0.060507
O       0.882277   -1.999336    0.221958
H      -0.549739    1.983948    0.798805
H      -0.446449    1.955834   -0.944747
H       3.378410    1.671597    0.310085
H       3.145971   -0.662975    0.324534
H      -2.109736   -0.803304   -0.436025
H      -0.791360   -3.189895   -0.108795
