17

C      -0.020634    1.505333   -0.025521
C      -0.029128    0.004643   -0.008220
C      -1.271885   -0.879528   -0.114786
C      -0.470931   -2.040046    0.585135
C       0.600203   -0.994967    0.983335
C       1.189624   -0.824580   -0.373773
O       1.059528   -1.997266   -1.163795
C       0.167755   -2.838556   -0.540641
O      -0.058195   -3.944759   -0.930522
H       0.973023    1.902379    0.206907
H      -0.307694    1.886405   -1.012481
H      -0.723264    1.914766    0.708680
H      -2.062207   -0.520279    0.548285
H      -1.691706   -1.076186   -1.107137
H      -0.985055   -2.644875    1.325351
H       1.103094   -0.869426    1.933300
H       2.135343   -0.324629   -0.535134
