21

C      -0.068827    1.596741    0.077673
C       1.450351    1.251707    0.065815
C       1.118640    0.157171    1.122947
C       0.010278    0.042983    0.033270
C       1.139756    0.187082   -1.038875
C       0.796675    0.632540   -2.479550
C       1.873077   -0.060331   -3.319988
O       2.128835   -1.281738   -2.646385
C       2.136394   -0.981931   -1.259154
H      -0.452349    2.031131    1.004863
H      -0.481127    2.105737   -0.794735
H       2.289094    1.951634    0.081774
H       1.817734   -0.674724    1.227415
H       0.792667    0.518450    2.101954
H      -0.823735   -0.662052    0.008197
H      -0.194163    0.264809   -2.767128
H       0.803384    1.717133   -2.610569
H       1.562108   -0.295496   -4.341102
H       2.786919    0.556693   -3.370391
H       3.149774   -0.688664   -0.936408
H       1.863368   -1.897021   -0.726439
