21

C       0.047833    1.081293    0.267010
O      -0.287466   -0.001497   -0.584256
C      -1.427177   -0.697403   -0.189853
C      -1.508724   -2.089930   -0.759787
O      -0.453363   -2.539211   -1.552762
C      -1.313966   -1.891458    0.740423
C       0.002016   -2.256663    1.384288
O      -2.465507   -2.043546    1.525925
C      -2.827656   -3.389285    1.779589
H       0.941458    1.551530   -0.149318
H      -0.764080    1.821292    0.301998
H       0.257639    0.742009    1.289258
H      -2.337395   -0.102260   -0.113712
H      -2.483049   -2.441195   -1.090908
H       0.080930   -1.763494   -1.766509
H       0.835284   -1.955369    0.748259
H       0.099828   -1.762184    2.356110
H       0.083874   -3.337290    1.539315
H      -3.799919   -3.366384    2.277672
H      -2.913771   -3.969025    0.850012
H      -2.108170   -3.894912    2.438041
