16

O       0.035171   -0.066143   -0.256928
C      -0.002295    1.133530   -0.041930
N      -1.177778    1.801550    0.140234
C      -1.404692    3.249153    0.207014
C      -0.854474    3.989073   -0.994375
C       0.426326    3.946368   -1.363434
C       1.498237    3.219859   -0.640872
O       1.396604    3.098051    0.783239
C       1.295982    1.899742    0.021153
H      -1.981209    1.208027   -0.005468
H      -2.486250    3.387903    0.263990
H      -0.976060    3.649468    1.128713
H      -1.556901    4.559776   -1.594442
H       0.746381    4.471545   -2.258817
H       2.511367    3.422795   -0.985274
H       2.145710    1.224002    0.093359
