21

C       0.289793    0.573189    0.669256
O       0.149806   -0.636356   -0.048805
C       0.592583   -0.580165   -1.411461
C       2.136692   -0.639581   -1.546981
C       2.499396   -2.091883   -1.830853
C       1.965897   -3.173929   -0.920864
O       1.508499   -2.991894    0.377821
C       1.210223   -2.839735   -2.185241
C       0.061444   -1.841071   -2.127504
H       1.338386    0.883406    0.771815
H      -0.268157    1.384304    0.179316
H      -0.125842    0.404616    1.665080
H       0.184627    0.339982   -1.850023
H       2.454827   -0.014343   -2.388812
H       2.626758   -0.239071   -0.652753
H       3.427587   -2.276100   -2.362682
H       2.521077   -4.106738   -0.969628
H       0.961637   -2.190344    0.423238
H       1.184190   -3.578516   -2.979992
H      -0.826181   -2.212374   -1.605719
H      -0.242932   -1.582844   -3.147302
