19

O      -0.071596    1.452008    0.027731
C       0.038061    0.048251    0.043386
C       0.283124   -0.678460    1.396001
C      -0.811928   -1.695394    0.989276
C      -0.434160   -3.139910    0.488616
C      -1.421114   -3.698816    1.522096
O      -0.991521   -3.233834    2.806926
C      -1.769025   -2.348002    1.988785
C      -1.317607   -0.678278   -0.067114
H       0.810192    1.826017    0.123471
H       0.739960   -0.304505   -0.726192
H       1.282448   -1.064923    1.608736
H      -0.046808   -0.047459    2.227149
H      -0.742341   -3.314574   -0.545888
H       0.603264   -3.457537    0.623756
H      -2.004062   -4.611984    1.494246
H      -2.682439   -1.947754    2.416425
H      -2.106123   -0.037928    0.341635
H      -1.629366   -1.052327   -1.045244
