21

C      -0.317930    1.564500   -0.214619
C      -0.038186    0.071928   -0.127446
C       1.183468   -0.577608   -0.822729
C       2.182788   -0.247343    0.351051
C       3.091575    0.941154    0.518245
C       2.633213   -1.725387    0.487535
C       1.134751   -1.797019    0.176595
O       0.299999   -2.897731    0.112540
C       0.786744   -0.543243    1.031080
H       0.568225    2.176559   -0.032034
H      -0.702937    1.827891   -1.206558
H      -1.078872    1.857922    0.517724
H      -0.962440   -0.488460   -0.312850
H       1.438194   -0.622968   -1.885028
H       2.575530    1.894802    0.384338
H       3.541179    0.943410    1.517906
H       3.911464    0.901887   -0.208419
H       3.323836   -2.095807   -0.279721
H       2.948670   -2.051802    1.484777
H       0.590354   -3.457421   -0.615730
H       0.586613   -0.545538    2.104971
