16

O       0.024389    1.431880    0.007649
C       0.018162    0.015746    0.001328
C      -1.407883   -0.476569    0.012399
C      -2.506450    0.380698    0.023465
C      -3.805584   -0.125417    0.033228
C      -4.022172   -1.500302    0.032025
C      -2.937830   -2.375928    0.021049
C      -1.658968   -1.846627    0.011489
F      -0.603476   -2.680544    0.000816
H       0.939672    1.724064    0.001263
H       0.532864   -0.383446   -0.887243
H       0.549374   -0.391570    0.876333
H      -2.325465    1.448032    0.024412
H      -4.648098    0.557313    0.041791
H      -5.031096   -1.898008    0.039603
H      -3.065806   -3.452033    0.019798
