17

C       0.085865    1.550024   -0.058063
C       0.065608    0.051278    0.088635
O       1.309630   -0.645888    0.030044
C       0.568251   -0.703578    1.266641
C       1.227623   -0.027686    2.458225
C       2.468038   -0.770616    2.933796
O       3.448548   -0.220086    3.359552
C      -0.034687   -1.986683    1.558779
C      -0.539485   -3.043080    1.832068
H       0.915061    2.007609    0.483505
H       0.192497    1.810902   -1.116034
H      -0.855109    1.980983    0.299492
H      -0.732029   -0.445274   -0.467015
H       1.511935    1.002863    2.244427
H       0.513250   -0.017324    3.293094
H       2.400451   -1.878739    2.879782
H      -0.984014   -3.980339    2.061486
