10

N       0.025859   -1.176825   -0.004249
C      -0.003978   -0.019112    0.002538
C      -0.027647    1.395220    0.010745
C      -1.144048    2.218898    0.030147
N      -0.672671    3.479719    0.030742
N       0.675164    3.553984    0.013457
C       1.074620    2.292817    0.001451
H      -2.196794    1.988470    0.042758
H      -1.205878    4.333573    0.042401
H       2.125543    2.048503   -0.013636
