16

C      -0.062680    1.445499   -0.141992
C      -0.108422   -0.043992   -0.091706
O       0.692383   -0.756621   -1.150990
C       0.105058   -1.869877   -0.540475
N       0.759105   -2.691213    0.168305
C       0.285561   -2.305265    1.548451
C      -0.393488   -0.930195    1.312584
C      -1.128280   -1.063073    0.032913
O      -2.454764   -1.069541   -0.318692
H       0.945703    1.813899    0.064837
H      -0.365437    1.794280   -1.133737
H      -0.747476    1.862810    0.600696
H      -0.391407   -3.020797    2.042088
H       1.199686   -2.241799    2.145910
H      -0.762173   -0.318483    2.133842
H      -2.895112   -1.784870    0.154634
