14

C      -0.043262    1.553857   -0.039880
C       0.030037    0.028622    0.013303
O       0.780138   -0.469488   -1.102730
C       1.835315   -1.231299   -0.684876
O       2.609070   -1.756870   -1.424986
C       1.789683   -1.245920    0.815170
C       0.740167   -0.519962    1.215365
C       2.740794   -1.937840    1.607556
N       3.517413   -2.502665    2.252620
H       0.957455    1.988632    0.024466
H      -0.504914    1.867994   -0.978598
H      -0.647831    1.931253    0.790081
H      -0.983013   -0.392089   -0.055075
H       0.424251   -0.328757    2.232225
