20

O      -0.054314    1.507356    0.301198
C       0.029976    0.115261    0.185741
C      -0.541327   -0.756740    1.274269
C      -1.257109   -0.621564   -0.060265
C      -2.561208    0.128112   -0.145693
C      -3.131195    0.569012   -1.526004
N      -4.469073   -0.070571   -1.250028
C      -4.183994   -1.509056   -1.114182
C      -3.876603   -0.633809    0.033960
H       0.559467    1.786159    0.988421
H       0.918440   -0.242074   -0.334951
H      -0.047221   -1.690950    1.518038
H      -0.987755   -0.243458    2.120232
H      -1.177412   -1.477502   -0.725054
H      -2.523257    0.990062    0.522387
H      -3.236794    1.649196   -1.637814
H      -2.633454    0.165579   -2.415151
H      -5.082112   -2.116216   -1.050907
H      -3.385910   -1.948251   -1.710160
H      -4.454093   -0.674122    0.952908
