15

O      -0.031189   -0.024010   -0.383514
C      -0.017389    1.108849    0.027627
C      -1.309699    1.816044    0.429898
N      -1.086424    3.218669    0.749786
C       0.105072    3.566574    1.373597
N       1.229033    2.978023    1.196552
C       1.258487    1.922723    0.198130
C       0.021193    4.705047    2.247307
C      -0.097753    5.663276    2.963635
H      -2.026602    1.723015   -0.391845
H      -1.718376    1.253310    1.283787
H      -1.897371    3.725696    1.071759
H       2.085340    1.235130    0.396237
H       1.463254    2.372674   -0.788898
H      -0.174170    6.508881    3.602376
