17

C      -0.215315    1.449194    0.040721
C      -0.022210   -0.030951   -0.020777
C       0.104750   -0.838547   -1.123291
O       0.093092   -0.634548   -2.463874
N       0.265148   -2.118688   -0.661487
C       0.219993   -2.052293    0.710429
C       0.379090   -3.271557    1.558723
O      -0.359434   -4.381993    1.052812
N       0.046806   -0.818954    1.117696
H       0.611650    1.942627    0.563603
H      -0.277328    1.891301   -0.960901
H      -1.137311    1.711279    0.571339
H      -0.055211    0.302486   -2.625754
H       0.331624   -2.953382   -1.220176
H       1.421214   -3.613430    1.571591
H       0.105057   -3.007129    2.587686
H      -1.291954   -4.141052    1.078580
