20

O      -0.061269   -0.177048   -0.129364
C       0.018232    1.021376   -0.047131
C       1.298571    1.817510   -0.117204
C       1.256973    2.877776   -1.233831
C       2.469604    3.795610   -1.184762
C       2.553240    5.055198   -2.093940
C       2.734831    5.851841   -0.803984
C       1.596538    5.640093    0.104962
N       2.659948    4.613621    0.077271
H      -0.898171    1.645726    0.086711
H       1.430128    2.333454    0.844344
H       2.136554    1.126934   -0.249155
H       1.228864    2.386568   -2.214693
H       0.329607    3.458965   -1.157603
H       3.374303    3.189337   -1.291685
H       3.426660    5.051335   -2.747730
H       1.670261    5.309800   -2.688978
H       3.484759    6.617731   -0.636077
H       1.584182    6.188214    1.041825
H       0.610986    5.425509   -0.301247
