18

N       0.039007   -1.202224   -0.232739
C      -0.023304   -0.050594   -0.118303
C      -0.049882    1.375803    0.022901
C      -1.254052    1.972888    0.034627
C      -1.598654    3.431804    0.118994
C      -0.454556    4.424158   -0.145699
C       0.654608    4.322022    0.869660
C       1.431360    3.249402    0.996010
C       1.332123    2.016836    0.126957
H      -2.117230    1.314263   -0.033676
H      -2.413568    3.617957   -0.593632
H      -2.034919    3.627179    1.109893
H      -0.059448    4.241671   -1.154396
H      -0.866753    5.437360   -0.155876
H       0.805023    5.166764    1.536758
H       2.210464    3.238066    1.753041
H       2.021276    1.255036    0.500035
H       1.685701    2.246514   -0.890258
