22

C      -0.673125    1.246023   -0.232339
C      -0.035667   -0.131577   -0.151520
O       0.591485   -0.255718    1.109412
C       1.111670   -1.542957    1.403740
C       2.406610   -1.849601    0.650860
C       1.314185   -1.551637    2.918243
O       1.726961   -2.841745    3.309357
C       1.957862   -2.947505    4.692821
H       0.085444    2.025865   -0.119156
H      -1.168596    1.381612   -1.198472
H      -1.414599    1.373094    0.561562
H      -0.799417   -0.918529   -0.271949
H       0.690691   -0.260101   -0.969082
H       0.359025   -2.311465    1.160383
H       3.140840   -1.056829    0.829754
H       2.819924   -2.796647    1.006051
H       2.240731   -1.929975   -0.426941
H       2.068097   -0.794860    3.194268
H       0.369290   -1.271482    3.409817
H       2.268097   -3.975399    4.896473
H       2.752791   -2.262509    5.028315
H       1.049825   -2.727787    5.276576
