18

C       0.080299    1.558475   -0.020399
C       0.030849    0.031365   -0.035820
N       0.694637   -0.496343   -1.222172
C       0.700758   -1.946325   -1.321988
C       1.446855   -2.536584   -0.143227
O       2.575810   -1.810193    0.307896
C       1.413071   -1.827837    1.152198
C       0.615373   -0.556350    1.256208
O       0.353122   -0.084383    2.338913
H       1.114544    1.901658   -0.110662
H      -0.495612    1.971837   -0.854548
H      -0.339285    1.932009    0.915031
H      -1.035931   -0.280741    0.016113
H       0.291146   -0.085157   -2.055072
H      -0.307499   -2.406869   -1.343115
H       1.204651   -2.229685   -2.252916
H       1.554538   -3.621094   -0.132469
H       1.533955   -2.357815    2.094987
