10

N      -0.091985    1.302739    0.309396
C       0.010355    0.099625   -0.052296
N      -1.135744   -0.689622   -0.152643
C      -1.193465   -1.993943   -0.525894
O      -2.177452   -2.668811   -0.611521
N       0.116500   -2.579568   -0.844394
N       1.165140   -1.989145   -0.790824
O       1.166063   -0.526963   -0.365133
H       0.817633    1.758120    0.339249
H      -2.004484   -0.225948    0.080328
