14

C       0.103113    1.412869   -0.029347
O       0.138255    0.007828   -0.109218
C       0.517243   -0.583385    1.120271
C       0.541725   -2.034041    0.996816
C       0.568819   -3.234306    0.918611
C       0.598650   -4.685362    0.813006
H       1.088429    1.834812    0.227240
H      -0.195549    1.785635   -1.011657
H      -0.623890    1.763917    0.720953
H       1.511886   -0.215319    1.429169
H      -0.185700   -0.285623    1.918653
H       1.587361   -5.084587    1.064548
H      -0.130588   -5.151106    1.484925
H       0.361692   -5.007186   -0.207013
