21

C      -0.041542    1.505025    0.167998
C      -0.020144   -0.025405   -0.004084
C       0.690953   -0.489954   -1.241641
C       0.123475   -0.858254   -2.444248
N       1.112850   -1.196192   -3.326018
C       0.916444   -1.752371   -4.643747
C       2.335003   -1.051948   -2.698062
C       2.105889   -0.616700   -1.410188
N       3.060377   -0.411493   -0.389983
H       0.971613    1.920790    0.210649
H      -0.550831    1.983026   -0.674713
H      -0.557998    1.793898    1.089808
H       0.452848   -0.478058    0.877188
H      -1.052733   -0.393499   -0.017738
H      -0.914643   -0.913539   -2.735386
H       1.640890   -1.328749   -5.346448
H       1.025003   -2.844456   -4.651238
H      -0.086822   -1.501819   -4.995886
H       3.253809   -1.279214   -3.215590
H       4.004216   -0.375106   -0.754617
H       2.888822    0.440885    0.129903
