17

O      -0.287401    1.315523   -0.150017
C       0.055349   -0.022747   -0.070258
C       0.778852   -0.768792   -1.235935
C       0.116358   -1.995000   -0.633967
C       0.749737   -2.984547    0.004046
C       0.410667   -3.055249    1.467699
O       0.632503   -1.705153    1.982156
C      -0.143198   -0.757525    1.301590
C      -0.931512   -1.164345    0.106343
H       0.442661    1.835125    0.205366
H       0.340766   -0.410938   -2.174042
H       1.871717   -0.758748   -1.296217
H       1.712275   -3.354611   -0.338096
H      -0.625835   -3.349527    1.669600
H       1.081126   -3.701033    2.036121
H      -0.633643   -0.079179    1.998566
H      -2.008933   -1.204870    0.004238
