20

C      -0.115051    1.501210    0.020396
C       0.012011   -0.004856   -0.006446
C      -0.796133   -0.824981    0.970039
C       0.711731   -0.792370    1.088834
C       1.547428   -1.887231    0.454081
C       0.871777   -3.020980   -0.278931
C       1.348765   -1.814825   -1.048425
C       0.386543   -0.660649   -1.348655
H       0.797307    1.986557   -0.346842
H      -0.946979    1.844256   -0.607050
H      -0.301409    1.864258    1.036469
H      -1.357502   -0.274926    1.719719
H      -1.294760   -1.729481    0.640713
H       1.137571   -0.286521    1.949028
H       2.525103   -2.069566    0.885540
H       1.442556   -3.935790   -0.403513
H      -0.190454   -3.192297   -0.146822
H       2.181360   -1.957603   -1.729138
H      -0.496552   -0.981552   -1.914758
H       0.902736    0.079678   -1.970439
