13

C      -0.039243    1.509660    0.010260
C       0.039735    0.006394    0.003956
O       1.074619   -0.620680   -0.006955
C      -1.263716   -0.764464    0.012029
C      -1.275748   -2.159907    0.006693
N      -2.425395   -2.815017    0.013870
N      -3.555779   -2.103204    0.026277
N      -3.549713   -0.791068    0.031362
N      -2.410115   -0.099318    0.024334
H       0.969284    1.922463    0.003481
H      -0.604131    1.862648   -0.858451
H      -0.589726    1.856094    0.890772
H      -0.358126   -2.738227   -0.003360
