17

O      -0.934760    1.245855   -0.100065
C       0.180937    0.834278    0.071279
C       1.445414    1.679196   -0.088570
O       2.490919    0.766355   -0.382559
C       3.782500    1.148824    0.033542
C       4.334273    2.411801   -0.561258
C       3.710304    3.347920   -1.291557
C       2.295457    3.458773   -1.634903
C       1.276259    2.768910   -1.110215
H       0.395780   -0.210496    0.381815
H       1.616361    2.130484    0.908756
H       3.840073    1.208469    1.136154
H       4.428212    0.310178   -0.257918
H       5.399307    2.539815   -0.373686
H       4.328680    4.160019   -1.667533
H       2.058945    4.222580   -2.371830
H       0.254102    2.964947   -1.417583
