19

O       0.223305    1.457395   -0.076084
C       0.074696    0.048066    0.017219
C       0.893118   -0.545045    1.222992
C       0.110160   -0.097250    2.428881
C      -1.185223   -0.424394    2.430187
C      -2.344050    0.559721    2.415996
C      -2.598578   -0.000068    0.982547
C      -1.386425   -0.434699    0.098163
C      -1.787789   -1.242781    1.289977
H      -0.335336    1.850251    0.602063
H       0.499960   -0.334075   -0.918341
H       0.941955   -1.633369    1.112595
H       1.911775   -0.152027    1.205241
H       0.466954    0.751859    3.007055
H      -3.200728    0.284680    3.041956
H      -2.114501    1.621156    2.561793
H      -3.571514    0.040617    0.502336
H      -1.770621   -0.791143   -0.855756
H      -2.080408   -2.285110    1.298777
