18

C      -0.034741    1.565004    0.010064
C       0.057625    0.043996    0.028039
C      -1.158038   -0.605562   -0.406630
N      -2.136098   -1.115945   -0.755688
C       1.326371   -0.733904   -0.329344
C       2.642454    0.019908   -0.295690
O       2.689760    0.691134    0.961518
C       1.869066   -0.001206    1.899866
C       0.826891   -0.747472    1.088439
H       0.897830    2.020186    0.342983
H      -0.256423    1.918463   -1.001276
H      -0.843476    1.902522    0.664982
H       1.234512   -1.595492   -0.978808
H       3.471224   -0.698046   -0.396035
H       2.751980    0.780453   -1.075701
H       2.456304   -0.725742    2.485184
H       1.461031    0.745248    2.589173
H       0.353416   -1.619415    1.522157
