16

C      -0.029521    1.472708   -0.010181
C      -0.021862    0.017626   -0.010507
C      -0.003799   -1.186176   -0.018865
C       0.024118   -2.620575   -0.033232
C      -0.463012   -3.393103    1.205979
C      -1.304858   -3.397252   -0.015353
C       1.123631   -3.291888   -0.788808
O       2.001132   -2.738623   -1.395491
H       0.812025    1.865676   -0.590972
H      -0.950731    1.869116   -0.451505
H       0.052861    1.874070    1.006016
H       0.080710   -4.295404    1.465871
H      -0.759872   -2.778682    2.046384
H      -2.197834   -2.785762   -0.039778
H      -1.351411   -4.302462   -0.611802
H       1.060336   -4.405881   -0.741423
