19

C       0.029274    1.429752   -0.015873
O      -0.001242    0.015612   -0.020420
C       0.628167   -0.553423   -1.120718
C      -0.051925   -0.447883   -2.518488
C       0.375968   -1.910361   -2.795525
O       1.775948   -2.001278   -3.143691
C       2.162575   -1.952457   -1.751723
C       2.182554   -0.500530   -1.213035
C       0.688614   -2.115730   -1.287184
H       1.058488    1.816353    0.006072
H      -0.481350    1.852469   -0.893253
H      -0.490247    1.758342    0.886862
H      -1.137919   -0.390242   -2.387280
H       0.285011    0.312498   -3.227561
H      -0.247308   -2.541429   -3.430447
H       2.998961   -2.617919   -1.533860
H       2.661447    0.256497   -1.839184
H       2.602933   -0.478362   -0.201744
H       0.274956   -2.855588   -0.608995
