19

C      -0.086639    1.479269    0.008315
C       0.022291   -0.020750   -0.045436
C       0.662673   -0.737043   -1.254754
C       0.597234   -2.082603   -0.517695
O       1.531829   -1.793648    0.536870
C       0.723603   -0.801846    1.190750
C      -0.409367   -1.717769    1.684027
C      -0.830242   -1.980689    0.227490
O      -1.273815   -0.658416   -0.109085
H       0.907914    1.934854   -0.004042
H      -0.648297    1.854835   -0.852364
H      -0.603963    1.801791    0.917197
H       0.025633   -0.624823   -2.133289
H       1.699287   -0.483381   -1.481209
H       0.851911   -3.009605   -1.026778
H       1.310288   -0.215620    1.895389
H       0.003045   -2.560736    2.240038
H      -1.226084   -1.243423    2.229425
H      -1.588834   -2.724841   -0.005440
