15

N       0.036261    1.223713   -0.163119
C       0.016147   -0.007919    0.045300
O       1.020492   -0.883275    0.446630
C       0.110929   -2.023418    0.464591
C      -1.005993   -1.104191   -0.030625
N      -2.399926   -1.020886    0.346319
C      -2.063287   -1.385309   -1.050958
C      -2.406452   -0.460986   -2.092981
C      -2.690967    0.278514   -2.995620
H       0.962707    1.619827    0.001994
H       0.444403   -2.810847   -0.216228
H      -0.009843   -2.415410    1.479344
H      -2.680800   -1.849932    0.866333
H      -2.158335   -2.435676   -1.323797
H      -2.933989    0.954005   -3.778234
