15

C      -0.022863    1.579416    0.000083
C      -0.011812    0.030493    0.011434
C       0.733560   -0.493909    1.290682
O       2.062665   -0.046051    1.355553
C      -1.370447   -0.513317   -0.006608
C      -2.486371   -0.954456    0.034675
C       0.746753   -0.463304   -1.155035
N       1.403883   -0.850659   -2.023426
H       0.998467    1.947981    0.108610
H      -0.453468    1.958445   -0.928260
H      -0.624965    1.937080    0.838894
H       0.214046   -0.087747    2.162700
H       0.655088   -1.588042    1.318608
H       2.570363   -0.501626    0.673554
H      -3.473741   -1.346359    0.053987
