17

O      -0.892600    0.868901   -0.355122
C       0.163942    0.891580    0.222529
C       1.202267    1.959227    0.042444
C       1.040220    2.924498   -1.107395
C       1.264565    2.242172   -2.475868
C       1.175029    3.184184   -3.583457
C       1.097913    3.983663   -4.477518
C       1.951284    2.327696    1.266608
O       2.532211    1.465839    0.304710
H       0.465866    0.103884    0.947914
H       0.030767    3.344843   -1.072334
H       1.749278    3.748771   -0.992686
H       2.251020    1.762716   -2.475888
H       0.523142    1.446253   -2.608025
H       1.030154    4.676992   -5.278677
H       2.365683    3.333000    1.322009
H       1.703872    1.868151    2.223167
