16

C       0.183023    1.397466   -0.080619
N       0.049164   -0.038475   -0.027024
C      -0.221357   -0.894927   -1.080234
N      -0.312999   -2.141004   -0.805510
C      -0.031424   -2.233616    0.641416
C       1.221859   -3.109554    0.783131
O       2.270905   -2.746786    1.235310
C       0.139008   -0.807194    1.141678
N       0.310717   -0.446478    2.344241
H       1.167778    1.712432    0.282918
H       0.072815    1.731339   -1.114041
H      -0.585840    1.889116    0.527200
H      -0.350342   -0.482347   -2.076567
H      -0.853938   -2.744976    1.156341
H       1.070075   -4.131300    0.376049
H       0.412341    0.565141    2.436220
