19

O      -0.352927    0.120277    0.074939
C       0.100380    1.234817    0.040066
C       1.515843    1.574644   -0.390500
C       1.530735    2.660773   -1.444465
O       1.174144    3.982169   -0.996230
C       2.500172    3.762581   -1.445587
C       3.767939    3.939806   -0.604793
C       4.516467    4.285116   -1.928612
C       3.142857    4.463686   -2.644105
H      -0.508593    2.118322    0.332231
H       2.054269    1.934264    0.495761
H       2.001906    0.663293   -0.752297
H       1.077931    2.385351   -2.398959
H       3.682198    4.800254    0.065072
H       4.123838    3.081138   -0.029769
H       5.171152    5.157174   -1.904602
H       5.079343    3.434311   -2.318464
H       3.013527    4.006184   -3.627756
H       2.834316    5.511832   -2.698219
