18

N      -0.100660    1.216348    0.665055
C      -0.008031    0.087705    0.102147
C      -1.244191   -0.755583   -0.130965
O      -1.158223   -1.527360   -1.315458
C      -0.085166   -2.441686   -1.221180
C       0.421475   -2.786097   -2.636906
C       1.443979   -1.617670   -2.522314
C       1.237679   -1.673018   -0.988272
O       1.188558   -0.438458   -0.279523
H       0.826333    1.630785    0.784599
H      -1.405588   -1.407873    0.744078
H      -2.101442   -0.089445   -0.223259
H      -0.332996   -3.258131   -0.527865
H       0.899517   -3.767736   -2.670643
H      -0.332309   -2.721751   -3.422358
H       2.456201   -1.776412   -2.896721
H       1.043833   -0.689362   -2.933624
H       1.993473   -2.291567   -0.496108
