19

C      -0.056896    1.571772   -0.046714
C      -0.007069    0.039052   -0.079690
C       0.731470   -0.491187   -1.265946
O       0.264153   -0.178196   -2.619002
C       1.440310   -0.993123   -2.874186
C       2.246953   -0.448161   -1.664261
O       2.545642   -1.760548   -1.113820
C       1.199394   -1.946112   -1.655577
C       0.519406   -3.268919   -1.546126
H       0.949359    1.996639    0.026253
H      -0.520512    1.961967   -0.956639
H      -0.634378    1.923648    0.812689
H       0.486172   -0.353500    0.817989
H      -1.024257   -0.371844   -0.090274
H       1.731256   -1.196327   -3.904608
H       2.995530    0.340109   -1.591452
H       0.394530   -3.556422   -0.497658
H      -0.468063   -3.210253   -2.014141
H       1.100457   -4.046611   -2.050986
