14

N       0.099543    1.406027    0.078417
C      -0.002523    0.025164    0.015571
C      -1.134332   -0.772569    0.016055
N      -2.457610   -0.265034   -0.009809
C      -0.618448   -2.099476    0.018721
N       0.716075   -2.127093    0.012734
N       1.059502   -0.820579    0.026793
C      -1.391649   -3.292448    0.004638
N      -2.083792   -4.220336   -0.007395
H       0.761775    1.806402   -0.575145
H      -0.818179    1.817303   -0.056721
H      -2.920967   -0.371385    0.888133
H      -3.028708   -0.751989   -0.693310
H       2.036025   -0.580116    0.064507
