16

O      -0.009927    0.083173    0.632985
C      -0.080914    1.210430    0.235682
C      -1.209418    2.223971   -0.066793
C      -0.052755    3.261648   -0.151960
N       0.919518    2.157033   -0.043096
C       2.025591    2.467097    0.872088
C       1.433589    3.532477    1.821727
C       0.227471    4.138131    1.076279
O      -0.382078    5.123717    1.393149
H      -1.762357    2.059285   -0.992867
H      -1.912191    2.360239    0.757615
H       0.003034    3.853528   -1.070324
H       2.334241    1.551171    1.379105
H       2.881145    2.855053    0.310805
H       1.053614    3.072012    2.741883
H       2.129728    4.319715    2.118271
