16

O      -0.736550    0.899059   -0.579805
C       0.138010    1.047057    0.236730
C       1.389763    1.827984   -0.001205
N       1.457994    3.139296    0.845037
C       1.893732    3.805645   -0.398698
C       3.034454    3.007559   -1.092630
C       3.671100    1.910161   -0.314096
C       2.727143    1.169108    0.274962
C       1.581009    2.658726   -1.305146
H       0.054824    0.613275    1.259506
H       0.490078    3.434183    0.987867
H       1.809107    4.879039   -0.517850
H       3.570309    3.547540   -1.864049
H       4.741530    1.796765   -0.194912
H       2.867906    0.368690    0.989230
H       1.058870    2.557872   -2.247827
