20

C      -0.395877   -1.955827    3.052528
N      -0.115567   -1.672168    1.652021
C      -0.918809   -0.631187    1.024758
C       0.541360   -0.417645    1.274841
C       1.020528    0.622228    2.223276
C       1.744406    0.505158    3.334760
C       2.048711    1.860749    3.903544
O       1.462517    2.789344    2.995265
C       0.795828    2.092883    1.950524
H      -0.672308   -1.072471    3.646166
H      -1.220593   -2.674331    3.096369
H       0.480902   -2.421139    3.514495
H      -1.287528   -0.839058    0.023576
H      -1.610614   -0.078223    1.660022
H       1.200269   -0.543035    0.414107
H       2.085670   -0.414674    3.791388
H       1.625111    2.000298    4.911665
H       3.131336    2.049481    3.982406
H       1.203085    2.400994    0.973838
H      -0.275946    2.349627    1.944836
