15

N      -0.168413    1.198148   -0.604580
C      -0.073928    0.060755   -0.099923
O       0.985148   -0.571667    0.531800
C       0.225645   -1.815051    0.653123
C      -0.164866   -2.130059    2.088986
O      -1.370959   -1.399012    2.350837
C      -1.985459   -1.009426    1.187377
N      -3.169312   -0.593253    1.096789
C      -1.011166   -1.134227    0.036054
H       0.698983    1.728835   -0.510286
H       0.722653   -2.627178    0.122799
H      -0.358853   -3.202049    2.216801
H       0.598227   -1.812900    2.803800
H      -3.627715   -0.599018    2.009551
H      -1.467932   -1.501930   -0.878899
