15

C      -0.064569    1.583442   -0.080504
C       0.029498    0.048976   -0.025508
C       0.682360   -0.478925   -1.227075
N       1.184678   -0.895168   -2.180699
C       0.783039   -0.464112    1.245549
O       2.109651    0.028766    1.305258
C       0.018327   -0.152116    2.454666
C      -0.596420    0.140497    3.445312
H       0.932718    2.026830   -0.136715
H      -0.625452    1.903154   -0.961077
H      -0.573688    1.954563    0.812585
H      -0.981635   -0.374277    0.010006
H       0.880975   -1.551671    1.154529
H       2.089145    0.901951    1.711089
H      -1.135759    0.378014    4.329634
