18

C      -0.018753    1.371509   -0.005383
N       0.024292   -0.073032   -0.007352
N       0.101821   -0.756748   -1.174711
C       0.119905   -2.034878   -0.813043
C       0.042449   -2.196263    0.584959
C      -0.023839   -0.901004    1.071107
N      -0.051123   -0.364056    2.363572
C      -1.355442   -0.053593    2.976461
C      -0.538543   -1.202930    3.449195
H       0.512313    1.746738    0.872077
H       0.467506    1.722091   -0.915815
H      -1.048523    1.747203    0.014971
H       0.192181   -2.801645   -1.570911
H       0.060294   -3.109478    1.156138
H      -1.389401    0.870605    3.544519
H      -2.245850   -0.282487    2.396768
H      -0.896337   -2.198384    3.199946
H       0.024660   -1.133069    4.374620
