19

O      -0.682903    0.714770    0.619453
C       0.049586    0.994197   -0.293415
C       1.321414    1.802389   -0.171540
C       1.302666    3.042457   -1.083161
C       2.617039    3.814909   -1.064379
C       3.858148    3.142461   -1.739290
C       4.082562    4.453013   -2.512565
O       4.984826    4.882457   -3.168892
C       2.738027    5.029118   -2.040768
H      -0.181905    0.663610   -1.334336
H       1.461817    2.077268    0.878014
H       2.156563    1.151246   -0.469030
H       1.079374    2.735966   -2.114991
H       0.485365    3.706217   -0.774487
H       2.854288    4.118672   -0.040292
H       4.683872    2.813941   -1.103383
H       3.592648    2.319628   -2.414300
H       1.989365    5.017117   -2.841756
H       2.769480    6.034543   -1.613615
