12

N       0.056278   -1.133796   -0.052929
C      -0.006784    0.022136   -0.015784
C      -0.038308    1.439260    0.031009
C      -1.114629    2.228988    0.027750
C      -0.683571    3.662478    0.087833
O       0.738853    3.628997    0.126428
C       1.214221    2.290511    0.094275
H      -2.146825    1.907792   -0.011655
H      -1.026320    4.233750   -0.789168
H      -1.075652    4.174473    0.980621
H       1.811494    2.075102    0.991922
H       1.860311    2.134959   -0.781682
