19

C      -0.019001    1.573647    0.005043
C      -0.082583    0.045872   -0.054987
C       0.778956   -0.522363   -1.189653
N       0.745806   -1.972338   -1.268994
C       1.723678   -2.827449   -0.883453
N       1.374313   -4.092276   -1.037430
C       0.109088   -4.044162   -1.543326
O      -0.577135   -5.171540   -1.835611
C      -0.320776   -2.750706   -1.701292
H       1.005089    1.924103    0.175210
H      -0.372518    2.024887   -0.928657
H      -0.641063    1.960408    0.816940
H       0.255498   -0.387429    0.893392
H      -1.118675   -0.282895   -0.193948
H       0.454592   -0.109991   -2.152562
H       1.824507   -0.227626   -1.052134
H       2.672031   -2.477395   -0.503490
H       0.010427   -5.904093   -1.613871
H      -1.236529   -2.325671   -2.072010
