17

C      -0.032823    1.561856    0.129304
C      -0.057019    0.028602   -0.009435
C       0.657748   -0.482510   -1.224499
C       0.130930   -0.879695   -2.437242
N       1.165982   -1.267319   -3.215863
N       2.366330   -1.143360   -2.596407
C       2.058443   -0.674874   -1.391163
N       3.044426   -0.497470   -0.415259
H       0.992524    1.945701    0.175467
H      -0.518597    2.038893   -0.727625
H      -0.549727    1.883933    1.039282
H       0.392053   -0.419854    0.885997
H      -1.099063   -0.310413   -0.028980
H      -0.890162   -0.922512   -2.784924
H       1.137812   -1.627935   -4.152451
H       3.970507   -0.567098   -0.818839
H       2.952555    0.373881    0.090388
