19

C      -0.010700    1.591602    0.302451
C       1.564082    1.605365    0.325955
C       1.526117    0.164200   -0.213595
O       0.787280   -0.612601    0.759227
C       0.060896    0.145481   -0.221327
C      -0.731592   -0.629187   -1.243079
C       0.124725   -0.934536   -2.505630
C       1.618873   -1.064840   -2.283811
C       2.289110   -0.552569   -1.246681
H      -0.525333    1.719548    1.257910
H      -0.418657    2.295338   -0.428078
H       1.987315    2.323969   -0.379718
H       2.043146    1.723525    1.300443
H      -1.062085   -1.567002   -0.786667
H      -1.633186   -0.080496   -1.532939
H      -0.246361   -1.850160   -2.979333
H      -0.029963   -0.145535   -3.256855
H       2.163827   -1.595964   -3.061206
H       3.365934   -0.664802   -1.158737
