15

O       0.152021    1.420671    0.082492
C       0.026100    0.039567    0.019487
C       0.206305   -0.759824    1.336722
O      -0.755920   -0.099676    2.221234
C      -1.771326   -0.737941    1.444628
C      -0.883777   -1.769802    0.855581
C      -1.374714   -0.613578   -0.048137
C      -2.303990   -0.643702   -1.117294
C      -3.090557   -0.662119   -2.028702
H      -0.275703    1.684726    0.908971
H       0.664717   -0.336264   -0.782717
H       1.168640   -0.951872    1.803500
H      -2.792682   -0.749149    1.798849
H      -0.938865   -2.840922    0.732985
H      -3.780406   -0.675678   -2.835575
