18

C       0.124236    1.596368    0.249457
C       1.311377    0.725626   -0.133683
C      -0.036715    0.119478    0.087048
C      -0.498270   -0.961353    1.113213
C      -1.289199   -1.523548   -0.060279
C      -2.130725   -2.370513   -0.744545
C      -2.177502   -1.847906   -2.077484
C      -1.376592   -0.717334   -2.164055
N      -0.853094   -0.553793   -0.912376
H       0.084379    2.004968    1.253683
H      -0.299697    2.238670   -0.514874
H       1.677079    0.788731   -1.152875
H       2.079816    0.541376    0.609664
H       0.306498   -1.592707    1.500997
H      -1.085331   -0.571984    1.950106
H      -2.649948   -3.240872   -0.376178
H      -2.746296   -2.263435   -2.896417
H      -1.161094   -0.059952   -2.990008
