20

C       0.104917    1.574449    0.230762
C       0.177838    0.047732    0.194230
C       0.609876   -0.511405   -1.178224
C       1.964476   -0.092718   -1.538087
N       3.040690    0.237395   -1.802522
C       0.423909   -2.056527   -1.272916
O      -0.345144   -2.606730   -0.525634
C       1.192995   -2.786420   -2.355709
C       0.788395   -4.250985   -2.503004
H       1.075770    2.029946    0.012075
H      -0.617161    1.956505   -0.499550
H      -0.210535    1.917363    1.220143
H       0.875126   -0.319340    0.954678
H      -0.792696   -0.398132    0.423286
H      -0.061938   -0.104278   -1.950757
H       1.069135   -2.232805   -3.296594
H       2.261104   -2.688521   -2.119527
H       0.931607   -4.790114   -1.563669
H      -0.266744   -4.342513   -2.774155
H       1.387830   -4.736184   -3.277572
