17

N       0.030513   -1.241509    0.558942
C       0.037884   -0.111433    0.314443
C       0.049539    1.320890   -0.004148
C      -0.746784    2.139974    0.997395
C       0.016297    3.016008    1.644942
C       1.461009    2.961256    1.229283
C       1.463947    1.960034    0.067621
C       2.671065    1.236743   -0.390989
N       2.142841    2.375510   -1.165901
H      -0.364012    1.425021   -1.017406
H      -1.808344    1.981127    1.138211
H      -0.345025    3.702010    2.402698
H       1.847093    3.929795    0.893179
H       2.101446    2.632811    2.058431
H       3.623473    1.419640    0.099493
H       2.548303    0.229692   -0.780689
H       1.643680    2.035931   -1.985325
