15

N      -0.007506    1.339265    0.009969
C       1.138315    2.094508    0.002679
C       2.366940    1.492762   -0.012995
C       2.435729    0.085324   -0.021524
N       3.502361   -0.708444   -0.036619
C       2.985286   -1.983006   -0.038518
C       1.602225   -2.045865   -0.025069
C       1.184373   -0.689775   -0.013288
C      -0.011158   -0.020142    0.002437
H      -0.893303    1.819195    0.021522
H       0.990754    3.165459    0.010124
H       3.267936    2.093967   -0.018679
H       3.663414   -2.828681   -0.050015
H       0.980541   -2.928236   -0.023784
H      -0.987139   -0.490730    0.009592
