10

C      -0.042184    1.375084    0.059583
O       0.030527   -0.055387   -0.048930
C       0.655565   -0.518564   -1.143181
O       1.143469    0.150258   -2.011403
C       0.647396   -2.054605   -1.107832
O       1.146120   -2.710292   -1.976972
H       0.962326    1.804380    0.084958
H      -0.583372    1.792415   -0.793018
H      -0.571979    1.577287    0.989552
H       0.146942   -2.491617   -0.220714
