17

C      -0.549308    1.699101   -0.275039
N      -0.384867    0.365294   -0.815302
C      -0.231476   -0.582155    0.007803
N      -0.068287   -1.886842   -0.437758
C       0.134440   -2.959877    0.395007
O       0.210725   -2.894226    1.604703
C       0.240057   -4.277264   -0.332320
C      -0.885993   -4.777645   -1.141426
O       0.282229   -4.239594   -1.760589
H      -0.520581    1.741950    0.825007
H       0.237930    2.352375   -0.668625
H      -1.504581    2.116113   -0.614343
H      -0.210881   -0.497209    1.098612
H      -0.038406   -2.049798   -1.436156
H       0.903354   -4.991885    0.148654
H      -1.021702   -5.851352   -1.252154
H      -1.786114   -4.173369   -1.235318
