18

C       0.247566    1.471754    0.212986
C      -0.194099    0.030318   -0.080914
C       0.419591   -0.504177   -1.335996
C       0.093008   -0.166495   -2.804916
C       0.544756   -1.611922   -3.208050
C       0.860471   -1.872109   -1.726851
O       1.804387   -0.874573   -1.309579
C       0.819228   -3.107332   -1.008639
N       0.755154   -4.119880   -0.452764
H       1.333873    1.527251    0.326916
H      -0.043691    2.151502   -0.594379
H      -0.211837    1.833266    1.136821
H       0.087393   -0.627440    0.748170
H      -1.285447   -0.017899   -0.175702
H      -0.971634    0.002908   -2.979406
H       0.670995    0.660928   -3.220494
H      -0.277092   -2.224326   -3.582539
H       1.406406   -1.698503   -3.872110
