19

C       0.002791    1.521662   -0.000250
C       1.301867    0.750086   -0.005650
C      -0.013333    0.015854    0.015598
C      -0.473797   -0.782944    1.248839
C      -1.501395   -1.740095    0.653090
O      -2.569696   -0.931908    0.050933
C      -1.966529   -1.129493   -1.227279
C      -0.978583   -2.143054   -0.748383
C      -0.487094   -0.775175   -1.183869
H      -0.278148    2.046533    0.906970
H      -0.298101    2.024072   -0.913955
H       1.888369    0.734862   -0.918993
H       1.898197    0.746663    0.901653
H       0.354259   -1.348923    1.695364
H      -0.917905   -0.152443    2.024696
H      -1.906040   -2.506263    1.316206
H      -2.599217   -1.071212   -2.105432
H      -0.669723   -3.113049   -1.111768
H       0.020869   -0.677333   -2.137538
