16

C      -0.017241    1.452282    0.030920
C       0.011582   -0.037397   -0.023027
N       0.019917   -0.753674   -1.144908
C       0.048603   -2.059482   -0.752853
N       0.120393   -3.059046   -1.692782
C       0.056205   -2.155533    0.641704
N       0.031173   -0.826040    1.066440
C       0.085477   -3.232215    1.578784
O       0.086298   -3.082794    2.792969
H       0.870869    1.851542    0.532930
H      -0.047068    1.842241   -0.986620
H      -0.896141    1.817290    0.573354
H      -0.169083   -2.764931   -2.613953
H      -0.236514   -3.962638   -1.425009
H       0.029228   -0.566490    2.039933
H       0.109990   -4.247546    1.125368
