15

O      -0.026306    1.424904   -0.038916
C      -0.013468    0.038600    0.022175
C      -0.458339   -0.759423    1.270141
C      -1.237102    0.015647    2.280880
C      -2.392788    0.497749    1.796049
C      -2.564198    0.031752    0.404113
O      -3.523866    0.111949   -0.330314
C      -1.302979   -0.729164    0.017439
O      -1.493297   -1.794974   -0.844030
H       0.787464    1.757578    0.355900
H       0.777429   -0.452173   -0.546979
H       0.137194   -1.615987    1.562736
H      -0.854600    0.204034    3.278086
H      -3.114589    1.118413    2.308565
H      -2.314110   -1.590643   -1.317645
