21

C      -0.797987    1.490181    0.055574
C      -0.125359    0.124016   -0.002850
C      -1.109055   -0.941564   -0.497127
C       1.241183    0.057254   -0.751321
C       1.801839   -0.849735    0.371977
O       3.115455   -0.689316    0.812812
C       0.616279   -0.379803    1.305424
C       1.042068    0.650166    2.228905
C       1.473001    1.499135    2.967473
H      -0.120200    2.255622    0.441656
H      -1.122934    1.794987   -0.945859
H      -1.683825    1.470580    0.700823
H      -1.472062   -0.691164   -1.500026
H      -0.651029   -1.934534   -0.549487
H      -1.978468   -1.009014    0.166421
H       1.242499   -0.338058   -1.770517
H       1.747629    1.027585   -0.747212
H       1.687295   -1.909181    0.130252
H       3.162796    0.150686    1.288537
H       0.100746   -1.178696    1.847622
H       1.809324    2.246451    3.643198
