20

O      -0.326283    1.365474   -0.428161
C      -0.086374   -0.017691   -0.217811
C      -1.439235   -0.691853   -0.023718
C      -1.331442   -2.184108    0.279355
C      -2.688365   -2.911207    0.364370
C      -2.885019   -3.428229   -1.067226
C      -1.468783   -3.580798   -1.577672
N      -1.110794   -4.261277   -2.578774
O      -0.617992   -2.862519   -0.782725
H       0.512683    1.787238   -0.634641
H       0.433100   -0.474117   -1.071614
H       0.540316   -0.183357    0.674867
H      -1.958890   -0.202960    0.809121
H      -2.049398   -0.530779   -0.920531
H      -0.733718   -2.332443    1.185023
H      -2.619619   -3.748133    1.065145
H      -3.488526   -2.251143    0.705190
H      -3.428136   -4.370696   -1.138072
H      -3.411409   -2.699492   -1.693157
H      -0.101585   -4.186086   -2.718887
