22

C      -0.844577    1.086879    0.536735
C      -0.802528   -0.219118   -0.265837
C       0.385413   -0.277796   -1.210555
N       1.708719   -0.497731   -0.585046
C       1.172172   -1.547121   -1.443865
C       0.829653   -2.879681   -0.821191
C       0.271625    0.637280   -2.408243
C       1.533551    1.052210   -3.156371
O      -0.809349    1.067576   -2.749878
H       0.075555    1.211696    1.116198
H      -0.959958    1.951394   -0.123212
H      -1.687435    1.086059    1.234317
H      -0.758475   -1.065186    0.423330
H      -1.715501   -0.321402   -0.859287
H       2.437552    0.032027   -1.054949
H       1.608027   -1.638832   -2.438613
H       0.493943   -2.768562    0.210725
H       0.048597   -3.389624   -1.394629
H       1.716088   -3.523216   -0.814345
H       2.042752    1.843347   -2.591920
H       2.250642    0.239793   -3.302797
H       1.241827    1.460403   -4.124588
