17

C      -0.223833    1.456752    0.471817
C       0.004648    0.024613    0.035903
C       1.333253   -0.410091   -0.532734
C       0.899705   -0.883950    0.832669
N      -1.165212   -0.594399   -0.543937
C      -1.569897   -0.672559   -1.825917
N      -2.747407   -1.252885   -1.876140
N      -3.070099   -1.526258   -0.581778
N      -2.140461   -1.136252    0.223167
H       0.687826    1.867719    0.913200
H      -0.506755    2.088089   -0.376935
H      -1.021677    1.506444    1.218535
H       1.334267   -1.134457   -1.338964
H       2.108805    0.343937   -0.604101
H       1.377893   -0.460091    1.708156
H       0.594909   -1.917538    0.938941
H      -0.993303   -0.314320   -2.662524
