14

O       0.014245   -0.036412   -0.023892
C       0.009543    1.171171    0.007928
N      -1.083079    1.990310    0.124846
C      -0.839776    3.418676    0.029830
C       0.686454    3.490297   -0.065779
N       1.349782    2.925685    1.129820
C       1.213865    2.091573   -0.080342
C       1.306630    4.558448   -0.793586
N       1.803720    5.432621   -1.365409
H      -1.996224    1.601068    0.295337
H      -1.300751    3.853461   -0.865020
H      -1.199811    3.959320    0.911846
H       2.303791    3.280477    1.183964
H       2.086018    1.783453   -0.642485
