15

O       0.346512    0.729995    0.967464
C      -0.058791    0.140427   -0.261644
C      -1.424666   -0.349634   -0.147704
C      -2.557705   -0.759385   -0.081058
C      -3.875066   -1.249742    0.008510
C      -5.093431   -0.740585   -0.424912
C      -6.043826   -1.700775   -0.037733
N      -5.481204   -2.734178    0.590365
N      -4.175148   -2.442798    0.605300
H       1.248990    1.044851    0.850864
H      -0.013319    0.866209   -1.089973
H       0.599779   -0.699207   -0.538726
H      -5.247840    0.191213   -0.942660
H      -7.113124   -1.685540   -0.187640
H      -3.525551   -3.076892    1.040395
