21

C       0.012325    1.614303   -0.069760
C       0.031636    0.084294    0.024431
C      -1.357679   -0.546473    0.016181
O      -2.139916   -0.121177    1.125445
C      -2.186465   -0.524149   -1.314576
C      -2.609642   -2.002742   -1.062282
C      -1.472222   -2.082765   -0.046547
C      -0.399768   -3.075120    0.051424
O      -1.407565   -2.945673    1.064266
H       1.028490    2.018422   -0.085297
H      -0.493160    1.954897   -0.980482
H      -0.498042    2.060439    0.790545
H       0.611276   -0.328228   -0.809980
H       0.537568   -0.220092    0.948934
H      -2.350046    0.809740    0.996677
H      -2.990215    0.214098   -1.353923
H      -1.552406   -0.413176   -2.198244
H      -3.582837   -2.072500   -0.571174
H      -2.580922   -2.690493   -1.909901
H      -0.453378   -3.982269   -0.550008
H       0.602869   -2.775736    0.352970
