21

C       0.481815    1.520624   -0.581815
C       1.626103    1.521226    0.470078
C       1.402659   -0.003054    0.677624
C       0.040047    0.111615   -0.076461
C      -0.080778   -1.074551   -1.050375
C       1.338883   -1.653759   -1.222466
C       2.251228   -1.001979   -2.278786
O       2.964183   -0.249932   -1.275237
C       2.261521   -0.925709   -0.199086
H      -0.263079    2.316587   -0.503771
H       0.863993    1.504865   -1.605071
H       2.613756    1.822282    0.119553
H       1.370388    2.092027    1.366336
H       1.383591   -0.365475    1.709155
H      -0.826730    0.184090    0.584988
H      -0.738026   -1.839246   -0.621867
H      -0.523111   -0.783777   -2.010380
H       1.350444   -2.744582   -1.219940
H       2.916524   -1.698397   -2.805636
H       1.762531   -0.352581   -3.016129
H       2.956996   -1.543044    0.380998
