19

C       0.137346    1.581630   -0.073298
C       0.059593    0.074780    0.038760
C       1.326784   -0.761291    0.083118
C       0.451879   -0.637414    1.296096
O       0.910990    0.185983    2.360627
C       1.367944   -0.441759    3.451522
O       1.404427   -1.639433    3.605055
C       1.837686    0.532949    4.516660
O       2.294773   -0.152828    5.646801
H       0.980475    1.979055    0.496808
H       0.259801    1.884277   -1.118161
H      -0.773883    2.053207    0.309424
H      -0.782271   -0.372920   -0.482915
H       1.365455   -1.715574   -0.429885
H       2.266022   -0.218534    0.106915
H      -0.108000   -1.495574    1.645782
H       2.628108    1.163023    4.081235
H       1.001207    1.203789    4.763576
H       2.186378   -1.093452    5.441076
