20

C       0.905456    1.148389    0.259694
C      -0.184576    0.135123   -0.028047
O      -1.089456   -0.079340    0.750628
C      -0.121344   -0.616136   -1.327789
C       1.189438   -0.991904   -1.953782
N       0.413782    0.099776   -2.523765
C      -0.442015   -0.293212   -3.662388
C      -1.231794   -1.560323   -3.259013
C      -1.324679   -1.462428   -1.722038
H       1.826103    0.631798    0.555893
H       1.131318    1.736440   -0.633381
H       0.589245    1.789343    1.083339
H       2.122763   -0.692929   -1.486462
H       1.233234   -1.947628   -2.471284
H      -1.120946    0.544674   -3.851991
H       0.172556   -0.432053   -4.557124
H      -2.213540   -1.599206   -3.736621
H      -0.698816   -2.466361   -3.561880
H      -1.326959   -2.440569   -1.234165
H      -2.232351   -0.944988   -1.399563
