22

C      -0.601728    1.555016   -0.447098
C      -0.494943    0.045691   -0.682283
C       0.841577   -0.486445   -1.196750
C       1.691034    0.304685   -2.125574
N       2.104788    0.102083   -0.724022
C       0.858844   -1.996843   -1.330385
C       0.014487   -2.579623   -2.445085
C       1.998177   -2.760802   -0.804014
O       0.763776   -2.696222   -0.078084
H       0.105331    1.911980    0.309497
H      -0.439679    2.131383   -1.363403
H      -1.603116    1.801708   -0.082508
H      -0.710089   -0.484002    0.253576
H      -1.280299   -0.254463   -1.386311
H       2.310848   -0.206511   -2.858012
H       1.355698    1.290880   -2.432940
H       1.918102    0.943676   -0.185824
H       0.336504   -2.196494   -3.419053
H       0.099642   -3.668825   -2.452628
H      -1.043099   -2.327892   -2.318002
H       2.227787   -3.734051   -1.238080
H       2.828381   -2.224062   -0.355216
