13

O      -0.002510    0.033609    0.255561
C      -0.052194    1.200993    0.028915
C      -1.143466    2.290010   -0.068822
O      -1.191160    2.875118    1.271018
C      -0.008167    3.678955    1.031940
C       1.284812    2.849354    1.207347
N       1.021278    2.173853   -0.128732
C       0.000123    3.253285   -0.451684
H      -2.132077    2.146613   -0.504975
H      -0.102508    4.677332    1.461087
H       2.193723    3.455300    1.144711
H       1.342815    2.167174    2.058577
H       0.114993    3.850359   -1.351154
