16

C       1.072129    0.918409    0.628350
C       0.221424   -0.234387    0.192702
C       0.126735   -0.795190   -1.040456
O      -0.756139   -1.806950   -1.052079
N      -1.293779   -1.938168    0.216763
C      -0.711937   -1.016526    0.951076
C      -1.102899   -0.915962    2.374148
C      -0.140620   -0.639847    3.454274
O      -1.021833    0.378221    2.985592
H       1.924097    0.589036    1.234639
H       1.476287    1.450815   -0.236585
H       0.494023    1.620280    1.233224
H       0.607885   -0.580145   -1.982537
H      -1.997948   -1.483493    2.621277
H      -0.348374   -1.017577    4.454128
H       0.911800   -0.496864    3.218092
