19

C      -0.117145    1.663005    0.094158
C       0.021031    0.138063    0.085790
C      -1.357659   -0.528596    0.066659
O      -2.403470    0.040588   -0.107240
C       0.764005   -0.418433   -1.128618
C       1.701482   -1.309043   -0.794760
C       1.848288   -1.429307    0.683882
C       2.294708   -0.151754    1.366815
C       0.824512   -0.458487    1.254478
H       0.865543    2.140843    0.091072
H      -0.676201    2.005284   -0.780484
H      -0.664492    1.996263    0.980390
H      -1.314729   -1.632798    0.208184
H       0.516759   -0.098167   -2.134314
H       2.333581   -1.843442   -1.495337
H       2.072206   -2.385137    1.143221
H       2.726366   -0.239326    2.358387
H       2.729955    0.625945    0.748636
H       0.292924   -0.690225    2.170797
