20

C      -0.139919    1.432804    0.144583
O       0.038513    0.048355    0.407204
C      -1.153391   -0.668814    0.390335
C      -1.695629   -1.171240   -0.925342
C      -1.051223   -2.122281    0.065936
C       1.187478    2.127647    0.264091
C       2.139127    2.138590   -0.903360
C       1.427694    3.405459   -0.500032
H      -0.558630    1.579275   -0.864595
H      -0.864360    1.857630    0.859867
H      -1.875486   -0.357921    1.147738
H      -2.769712   -1.212120   -1.070177
H      -1.123602   -0.929998   -1.814407
H      -0.061239   -2.490914   -0.176864
H      -1.678197   -2.820700    0.608510
H       1.633733    2.059180    1.251839
H       3.200871    2.055117   -0.700942
H       1.820866    1.645446   -1.815845
H       0.634346    3.769839   -1.144730
H       1.998767    4.190325   -0.017085
