22

C      -0.211813    1.405382   -0.498123
C      -0.319737   -0.125302   -0.447439
C       0.492285   -0.793332   -1.522367
C      -0.019397   -0.847356   -3.014484
C       1.013155   -1.188532   -4.053714
C       0.512036   -2.267250   -3.134803
C       1.034419   -2.191057   -1.658910
N       1.882462   -1.084265   -1.318153
C       3.095738   -0.568597   -1.944039
H       0.823052    1.727246   -0.342899
H      -0.540519    1.794630   -1.467884
H      -0.829627    1.871484    0.275517
H       0.025409   -0.493433    0.524423
H      -1.370936   -0.424366   -0.552795
H      -1.006567   -0.492358   -3.283146
H       0.606443   -1.253522   -5.059959
H       2.025013   -0.814246   -4.029966
H      -0.016563   -3.137572   -3.502076
H       0.964523   -3.035446   -0.978738
H       2.909584    0.357250   -2.498664
H       3.829865   -0.343285   -1.160763
H       3.549039   -1.300159   -2.620825
