21

C       0.234928    1.478902    0.073151
C       0.057286   -0.027688    0.004023
O       0.665151   -0.501738   -1.185262
C       0.594347   -1.904331   -1.345939
C       1.427838   -2.249626   -2.599440
C       0.775915   -1.675135   -3.872457
O       2.738815   -1.713688   -2.431458
C       1.540807   -3.708198   -2.698231
C       1.586350   -4.905902   -2.777014
H       1.296577    1.741895    0.087019
H      -0.227559    1.961435   -0.792493
H      -0.230929    1.873972    0.980616
H       0.515712   -0.516106    0.879161
H      -1.011953   -0.293911    0.007307
H       1.026174   -2.415843   -0.473581
H      -0.446479   -2.239302   -1.467350
H       0.633735   -0.598085   -3.753270
H       1.428750   -1.859271   -4.727844
H      -0.195753   -2.140646   -4.062169
H       2.599555   -0.834457   -2.054618
H       1.644477   -5.963830   -2.850838
