18

O      -0.136806    1.469604    0.064177
C       0.002007    0.060603    0.152701
C      -1.366305   -0.555595   -0.133816
C      -1.355943   -2.047896   -0.096925
C      -2.515009   -3.035273    0.118924
C      -1.757294   -4.085137   -0.729323
C      -0.632333   -3.139164   -0.942396
N      -0.593325   -4.088869    0.226938
C      -1.328403   -3.031869    1.050735
H       0.719597    1.869116    0.241375
H       0.738659   -0.315908   -0.575388
H       0.343635   -0.250662    1.152194
H      -2.082134   -0.176196    0.605920
H      -1.711557   -0.197351   -1.112089
H      -3.560471   -2.824171    0.294119
H      -2.066344   -4.972845   -1.268328
H       0.155051   -3.109150   -1.687129
H      -1.238672   -2.911172    2.123500
