19

C       0.118577    1.661114   -0.227780
C       0.078643    0.206519    0.207798
O       0.668611   -0.661298   -0.807175
C       1.613252   -1.413569   -0.047175
C       0.859599   -1.768851    1.250217
C       0.925595   -0.218044    1.422078
C       2.349491   -0.283964    0.778833
C       3.499070   -0.710852    1.641439
O       3.428034   -1.135404    2.769966
H       1.140623    2.035520   -0.328735
H      -0.378355    1.773553   -1.195760
H      -0.409244    2.286205    0.500248
H      -0.967210   -0.095587    0.353906
H       2.130985   -2.124954   -0.688804
H      -0.124472   -2.227522    1.127705
H       1.460005   -2.296575    1.987481
H       0.747422    0.275090    2.375941
H       2.672466    0.552903    0.153064
H       4.489755   -0.604303    1.142472
