16

O      -0.838241    1.049063   -0.537852
C       0.116494    0.919786    0.187574
C       1.342994    1.791962    0.143616
C       1.390109    3.001273   -0.812335
N       1.581772    3.981816    0.318503
C       0.390054    3.851520    1.161542
C       1.444225    2.812061    1.307650
C       2.245310    2.637526    2.470454
C       2.914597    2.444493    3.451640
H       0.131554    0.143787    0.986072
H       2.239363    1.167499    0.100926
H       2.262031    3.012407   -1.466412
H       0.483147    3.174582   -1.396730
H       0.340685    4.597907    1.947284
H      -0.562864    3.591065    0.704934
H       3.507958    2.289264    4.318717
