18

C       0.005433   -1.172413    0.230738
C      -0.022635    0.015347    0.050926
C      -0.041120    1.456739   -0.166831
C       1.344425    2.103863   -0.051173
C       1.503896    3.612651    0.021854
C       1.413358    3.980353    1.520742
C       1.206336    2.671708    2.261728
N       2.119653    1.991872    1.259314
C       2.669158    3.403774    0.939198
H       0.031146   -2.220984    0.394531
H      -0.417745    1.672520   -1.175994
H      -0.749743    1.931254    0.520435
H       1.996590    1.682314   -0.821970
H       1.383919    4.364951   -0.748500
H       1.226582    5.000904    1.831783
H       1.703888    2.666496    3.234825
H       0.208888    2.234669    2.366842
H       3.710784    3.689031    0.922644
