18

C      -0.315722    1.477771   -0.066721
C       0.210039    0.045166    0.074083
C       0.805555   -0.498329   -1.209826
C       0.634275   -1.934716   -1.599180
N      -0.108111   -0.864471   -2.300820
C       0.536144   -0.461064   -3.539222
O       0.102926   -0.710085   -4.632220
C       1.786978    0.260051   -3.177411
C       1.956182    0.207056   -1.851250
H       0.485923    2.177384   -0.325080
H      -1.073810    1.531058   -0.853485
H      -0.768808    1.819209    0.868275
H       0.975170   -0.004904    0.859880
H      -0.602690   -0.618291    0.386749
H       1.441752   -2.423639   -2.138112
H       0.022370   -2.587172   -0.981776
H       2.456864    0.668262   -3.921664
H       2.780216    0.624627   -1.284320
