13

N       0.078572    1.298749    0.279297
C      -0.073981   -0.029570    0.000545
N      -1.213425   -0.605627    0.167119
C      -1.372385   -1.933067   -0.250877
O      -2.191256   -2.283549   -1.056491
N      -0.581095   -2.864150    0.469543
C       0.687478   -2.795897    0.370656
N       1.462429   -1.921371   -0.400110
C       1.126275   -0.698750   -0.570390
H       0.997693    1.674720    0.439894
H      -0.686935    1.748661    0.757620
H       1.292149   -3.533910    0.897543
H       1.799305   -0.071430   -1.161667
