20

C       0.030065    1.544311   -0.147301
C      -0.127003    0.040034   -0.198363
C      -0.121446   -0.778258    1.066888
C      -1.399787   -0.611058    0.283934
C       1.478003    2.023815   -0.102511
C       1.652617    3.567899   -0.073935
N       2.346440    3.861079    1.192497
C       2.528159    2.736940    1.746642
O       2.107628    1.600858    1.144421
H      -0.438441    1.998091   -1.032023
H      -0.497474    1.950463    0.725602
H       0.341011   -0.423553   -1.064074
H       0.369552   -1.744859    1.053786
H      -0.024092   -0.245703    2.006026
H      -2.170356    0.030662    0.699307
H      -1.784549   -1.461732   -0.267649
H       2.053446    1.559810   -0.910969
H       2.243566    3.940558   -0.916573
H       0.688080    4.088927   -0.096940
H       3.011198    2.581092    2.705336
