19

C       0.135359    1.436309   -0.043071
C      -0.045642   -0.032352    0.174171
O       1.092029   -0.891700   -0.028118
C       0.406076   -0.956052    1.246664
C       1.269331   -0.750798    2.451668
O       2.180600   -1.825543    2.628221
C      -0.830415   -1.815213    1.075126
C      -2.060083   -0.964286    1.269053
C      -1.303090   -0.861670   -0.030866
H       1.061455    1.790389    0.416663
H       0.184237    1.661190   -1.114453
H      -0.706189    1.994772    0.378687
H       1.795529    0.211838    2.366162
H       0.652947   -0.720450    3.355975
H       2.679586   -1.898364    1.806544
H      -0.858537   -2.897026    1.065476
H      -3.008693   -1.490644    1.220987
H      -2.050084   -0.138725    1.976199
H      -1.737437   -1.129711   -0.985989
