19

C      -0.145348    1.837538    0.722187
C      -0.083026    0.417857    0.156939
O       0.592759   -0.502169    0.999144
C       2.000914   -0.345655    1.028838
C       2.602009   -1.458920    1.751350
C       3.122091   -2.364331    2.344061
C      -1.493075   -0.138009   -0.123722
C      -1.729313   -1.606446    0.144019
O      -2.345727    0.593159   -0.571101
H       0.839437    2.311715    0.733991
H      -0.815881    2.436919    0.103851
H      -0.536445    1.817443    1.743845
H       0.418561    0.443075   -0.829027
H       2.401330   -0.309982    0.001127
H       2.284950    0.600847    1.513489
H       3.577492   -3.167664    2.868720
H      -0.991337   -2.216717   -0.386380
H      -1.586296   -1.818605    1.207846
H      -2.740111   -1.872040   -0.166880
