18

C       0.134194    1.307043    0.134867
O      -0.012680   -0.056250   -0.227267
C      -1.299096   -0.588976   -0.075632
C      -2.303775   -0.039757   -1.093516
C      -1.304306   -2.124645   -0.003259
N      -0.522800   -2.502899    1.172065
C      -1.972077   -2.132437    1.348645
C      -1.969827   -0.624337    1.359744
O      -2.447317    0.218280    2.063352
H       1.201421    1.528807    0.065773
H      -0.407189    1.980792   -0.544012
H      -0.207172    1.494879    1.159640
H      -1.890907   -0.137879   -2.102302
H      -3.251389   -0.584992   -1.047180
H      -2.518643    1.013994   -0.900192
H      -1.480999   -2.804530   -0.827204
H      -0.492759   -3.522414    1.210035
H      -2.677594   -2.828721    1.783262
