21

C       0.123725    1.519080    0.027501
C       0.072079    0.063999    0.011826
C       0.021318   -1.140506   -0.003408
C       0.016398   -2.599791   -0.031763
O       0.782172   -3.096417   -1.117973
C       0.287655   -3.229087    1.378307
C      -1.242909   -3.390818    1.559097
C      -1.405768   -3.249354    0.021500
C      -2.605018   -2.525886   -0.563430
H       0.957560    1.885039    0.636726
H       0.246972    1.922647   -0.983520
H      -0.798823    1.941456    0.440687
H       1.544325   -2.518821   -1.231782
H       0.789950   -4.190374    1.243632
H       0.835897   -2.623777    2.102384
H      -1.603661   -4.312636    2.019353
H      -1.680873   -2.538856    2.087563
H      -1.289646   -4.233670   -0.445189
H      -2.714202   -1.528014   -0.127471
H      -2.504005   -2.410074   -1.647776
H      -3.527306   -3.084695   -0.370267
