21

C      -0.042406    1.324556    0.038523
O      -0.152294   -0.063539   -0.171558
C       0.709697   -0.532244   -1.184351
C       0.488998   -2.033350   -1.313564
C       1.337850   -2.671935   -2.388977
O       1.970060   -2.016301   -3.193701
C       1.418467   -4.201153   -2.456120
C       0.037743   -4.856792   -2.596002
O       2.248084   -4.583919   -3.519029
H       0.974382    1.611421    0.350018
H      -0.296195    1.896151   -0.868056
H      -0.743679    1.591375    0.832739
H       0.503153   -0.033778   -2.143413
H       1.761990   -0.319423   -0.935765
H       0.676116   -2.530626   -0.354092
H      -0.567098   -2.227752   -1.541998
H       1.859445   -4.526117   -1.495713
H       0.170077   -5.935885   -2.704626
H      -0.589979   -4.672860   -1.719360
H      -0.475096   -4.485679   -3.488598
H       2.574292   -3.751936   -3.899468
