14

N       0.043359   -1.066119   -0.079458
C       0.008820    0.087837   -0.012646
C      -0.015827    1.523989    0.091954
C      -0.763079    2.414177    1.094230
C      -0.105019    3.363695    0.090592
C       1.192263    2.513034   -0.057595
C       0.997954    2.503335   -1.568399
N      -0.456974    2.427716   -1.105392
H      -1.852673    2.350946    1.060178
H      -0.379296    2.422696    2.116066
H      -0.202595    4.442659   -0.019970
H       2.095873    2.537161    0.558331
H       1.223105    3.421755   -2.117883
H       1.324039    1.623223   -2.129377
