18

C       0.021210    1.487196    0.081257
C       0.006494   -0.000281   -0.047337
C      -0.038486   -0.807347   -1.168692
C      -0.029847   -2.153560   -0.709293
C       0.018612   -2.125871    0.651817
C       0.031076   -3.496194    1.237715
O      -0.014943   -4.339043    0.080023
C      -0.054043   -3.581682   -1.149562
N       0.040816   -0.823960    1.068508
H       0.929132    1.853919    0.577179
H      -0.018062    1.943471   -0.910439
H      -0.836970    1.864604    0.652006
H      -0.072667   -0.447958   -2.186288
H       0.938079   -3.723878    1.820794
H      -0.835144   -3.713194    1.883511
H      -0.962442   -3.858893   -1.704595
H       0.809326   -3.869526   -1.767494
H       0.076290   -0.497648    2.018654
