18

C       0.110171    1.512083   -0.017411
C       0.149258   -0.000359    0.072869
O       0.271100   -0.574211    1.137490
C       0.035737   -0.735902   -1.223279
C       0.712504   -2.094165   -1.348357
C      -0.774678   -2.031611   -1.329066
C      -1.572093   -2.568589   -0.148528
C      -1.819009   -4.004339   -0.282077
N      -2.012730   -5.137205   -0.402146
H       0.928220    1.873054   -0.651547
H      -0.823331    1.840069   -0.489194
H       0.195670    1.947679    0.978279
H       0.016821   -0.109633   -2.108635
H       1.221345   -2.320892   -2.277629
H       1.206013   -2.442130   -0.447050
H      -1.273791   -2.155371   -2.285366
H      -1.034985   -2.376242    0.784188
H      -2.539694   -2.058485   -0.072881
