18

C      -0.082540    1.434828   -0.061961
C      -0.019224   -0.046314    0.117514
C      -0.983924   -0.934786    0.340023
C      -2.399345   -1.279467   -0.078297
C      -1.736827   -2.506125   -0.816945
C      -0.483878   -2.321973    0.119043
O       0.844881   -2.205494   -0.353002
C       1.260580   -0.849452   -0.114626
H       0.504446    1.958139    0.703962
H       0.330980    1.738137   -1.032525
H      -1.111124    1.799572    0.003692
H      -3.041951   -1.605832    0.745223
H      -2.939620   -0.546425   -0.680658
H      -2.263829   -3.462232   -0.769317
H      -1.486013   -2.260581   -1.850467
H      -0.529098   -3.013375    0.973208
H       1.800986   -0.482934   -0.998941
H       1.963571   -0.814489    0.734435
