18

C      -0.033176    1.533677    0.045493
N       1.495059    1.274589    0.051491
C       1.193839    0.052799    0.932052
C       2.182931   -1.043326    0.581726
C       1.795085   -1.166377   -0.931749
C       0.506274   -2.007374   -1.004349
C      -0.550956   -1.326566   -0.517987
C       0.018970    0.003464   -0.128876
C       1.192380    0.240927   -1.074723
H      -0.397713    1.945479    0.990785
H      -0.370052    2.135637   -0.803379
H       0.978568    0.277784    1.977430
H       3.216882   -0.708020    0.708458
H       2.031651   -1.966135    1.146973
H       2.598703   -1.479826   -1.597623
H       0.504879   -3.052221   -1.293881
H      -1.547798   -1.714745   -0.352449
H       1.022120    0.659988   -2.067579
