14

O      -0.100782    1.354699    0.008755
N       0.033223   -0.048203    0.003922
C      -1.107167   -0.625820    0.011189
C      -1.232981   -2.142552    0.008082
C      -2.763666   -2.404681    0.018844
C      -3.371881   -1.024556    0.027432
C      -2.451755   -0.051131    0.023122
H       0.817634    1.642685    0.002426
H      -0.750144   -2.570493   -0.874554
H      -0.737085   -2.575109    0.881183
H      -3.093158   -2.978753   -0.855866
H      -3.079988   -2.983898    0.895017
H      -4.444792   -0.865466    0.036093
H      -2.634967    1.013468    0.027506
