21

C      -0.134159    1.496814   -0.022761
C      -0.022568   -0.010038    0.045476
C       1.303966   -0.696719   -0.209741
C       0.710919   -0.677105    1.170742
C       1.352872   -0.066730    2.443899
C       0.902797   -1.340576    3.198982
C       1.536225   -1.979113    4.391192
O      -0.525513   -1.407718    3.064883
C       0.286930   -1.888433    1.975964
H       0.774286    1.979302    0.353102
H      -0.286669    1.836521   -1.053213
H      -0.975102    1.859679    0.578185
H      -0.900669   -0.541690   -0.314645
H       1.308819   -1.634090   -0.757907
H       2.171836   -0.070227   -0.395853
H       2.439713    0.031981    2.369353
H       0.921760    0.863797    2.822986
H       1.405459   -1.354185    5.282237
H       1.080044   -2.952600    4.589807
H       2.610792   -2.118182    4.234249
H       0.125945   -2.910838    1.649657
