17

C      -0.158256    1.562424    0.005809
C       0.075366    0.041032    0.037998
C       0.751283   -0.478443   -1.197652
C       2.028606   -0.907476   -1.215315
N       2.585361   -1.361581   -2.385897
N       1.927677   -1.419342   -3.563677
N       0.726014   -1.041536   -3.612471
C       0.025334   -0.547219   -2.464219
N      -1.199785   -0.189358   -2.566952
H       0.789903    2.104938   -0.067460
H      -0.781725    1.830136   -0.849171
H      -0.665144    1.886292    0.919689
H       0.673433   -0.227176    0.917004
H      -0.894536   -0.460164    0.130053
H       2.675872   -0.923778   -0.345651
H       3.535391   -1.689014   -2.442354
H      -1.503927   -0.330693   -3.532858
