16

N      -0.001501   -1.153227    0.039696
C       0.009051    0.001440    0.004917
C       0.001271    1.466293    0.020175
C      -0.735770    1.992754    1.275695
O      -0.710584    3.402744    1.289925
C       0.615913    3.915583    1.302100
C       1.384268    3.447170    0.065768
N       1.370791    1.987077   -0.090699
H      -0.554465    1.815834   -0.860414
H      -1.786488    1.690333    1.270759
H      -0.253612    1.577899    2.176721
H       0.524304    5.005339    1.329800
H       1.137578    3.587276    2.217811
H       0.926172    3.887084   -0.828935
H       2.425047    3.783554    0.104498
H       1.946820    1.557745    0.629223
