24

C       0.361138    1.486009    0.067377
C       0.096496   -0.015539    0.201070
C      -1.300772   -0.410924   -0.279359
N      -1.476945   -1.859779   -0.188543
C      -2.008514   -2.412707    1.055518
C      -2.820541   -2.433250   -0.192557
C      -4.096208   -1.625615   -0.331951
O      -4.255484   -0.700118    0.722265
C      -5.432910    0.063636    0.602796
H       1.363742    1.746074    0.420325
H       0.281919    1.812343   -0.975923
H      -0.358620    2.071327    0.650651
H       0.838628   -0.586234   -0.368756
H       0.210868   -0.321050    1.248910
H      -2.063608    0.144510    0.285770
H      -1.413196   -0.131564   -1.335724
H      -1.530594   -3.318465    1.420533
H      -2.331942   -1.715599    1.824849
H      -2.879737   -3.364135   -0.756581
H      -4.106402   -1.099122   -1.303086
H      -4.946548   -2.329385   -0.346618
H      -5.471051    0.741477    1.458663
H      -5.443089    0.657899   -0.324289
H      -6.331594   -0.573002    0.611806
