21

C       0.054886    1.557380    0.159706
C       1.294818    0.740797   -0.081181
C       2.166414    0.398712    1.144829
C       1.455030   -0.809269    1.801359
C       1.327740   -0.987582    3.323945
C      -0.073840   -1.645948    3.495236
C      -0.834600   -1.149066    2.276916
C       0.008903   -0.682849    1.357865
C      -0.057765    0.046080    0.065816
H      -0.083188    2.020274    1.131967
H      -0.342902    2.132249   -0.670617
H       1.771687    0.816638   -1.051901
H       3.192985    0.166421    0.848218
H       2.217191    1.248026    1.837295
H       1.871566   -1.725770    1.353224
H       2.133249   -1.573810    3.775087
H       1.322745   -0.002309    3.805985
H       0.001587   -2.744020    3.500440
H      -0.555433   -1.368961    4.439860
H      -1.915854   -1.180435    2.202953
H      -0.581469   -0.375743   -0.784987
