20

N      -0.138492    1.263399    0.311280
C      -0.083535    0.004960    0.228975
O      -1.203066   -0.707211    0.006382
C      -1.039804   -2.112581   -0.190768
C      -2.410134   -2.764299   -0.091545
C      -2.355045   -4.277741   -0.336463
C      -3.715161   -4.919984   -0.208667
C      -3.903082   -6.264368    0.348067
O      -4.207853   -5.102116    1.121667
H       0.788461    1.638338    0.501570
H       0.818598   -0.615360    0.332845
H      -0.591923   -2.297009   -1.177839
H      -0.359772   -2.523287    0.569093
H      -2.829304   -2.567021    0.900603
H      -3.077246   -2.287547   -0.819223
H      -1.958321   -4.483450   -1.340115
H      -1.674974   -4.751941    0.381559
H      -4.469855   -4.552994   -0.907820
H      -4.760133   -6.864260    0.045178
H      -3.034899   -6.832416    0.680752
