16

O       0.022124    1.250692    0.398278
N      -0.015029   -0.119958    0.262032
C      -1.158474   -0.616903    0.006399
C      -1.266303   -2.127383   -0.110270
O      -0.362771   -2.843310    0.688676
C      -2.733142   -2.371922    0.292345
N      -3.373887   -1.133625   -0.140659
C      -2.523793   -0.033458   -0.128462
N      -2.793104    1.209308   -0.228756
H       0.950726    1.414553    0.601450
H      -1.146445   -2.401196   -1.172330
H       0.402723   -2.267143    0.813026
H      -3.170886   -3.239837   -0.207210
H      -2.779930   -2.527195    1.379133
H      -4.359100   -0.990672    0.017853
H      -3.803239    1.359300   -0.291618
