14

O      -0.143351    0.067978    0.072451
C      -0.062628    1.251057    0.064261
N      -1.125597    2.285187   -0.091292
C      -0.988665    2.996296    1.252270
C       0.371808    3.502589    0.784424
C      -0.016639    3.207876   -0.609162
C       1.030010    2.283524    0.040634
C       2.425569    2.170109   -0.177391
C       3.608230    2.052697   -0.362684
H      -1.731857    3.793473    1.325481
H      -1.053328    2.333133    2.120426
H       1.011889    4.288384    1.166829
H       0.009847    3.697914   -1.570049
H       4.650989    1.941335   -0.530285
