19

O       0.000297   -0.024385   -0.119950
C      -0.021578    1.175798   -0.017956
C      -1.287141    2.039401    0.107071
C      -0.805817    3.439172    0.483998
C      -0.362771    3.652252    1.968597
C       1.130078    3.674416    1.547690
C       1.792822    2.278627    1.457127
C       1.203836    2.085075    0.012027
C       0.696599    3.550923    0.045636
H      -1.774273    2.037384   -0.877366
H      -1.994951    1.591114    0.810452
H      -1.465653    4.224465    0.113263
H      -0.701850    4.611528    2.367105
H      -0.651297    2.869373    2.678486
H       1.742237    4.486650    1.940409
H       2.883088    2.338019    1.425629
H       1.509720    1.535586    2.209098
H       1.933066    1.780459   -0.739080
H       0.982677    4.241157   -0.746716
