19

C      -0.099930    1.602875   -0.014594
C       0.085912    0.091001    0.024738
C      -1.082684   -0.616884   -0.662978
C       1.385601   -0.690920   -0.190895
C       2.650089   -0.167809    0.554801
O       2.368325    1.042907    1.276195
C       1.963865   -0.207835    1.840452
C       0.658647   -0.750295    1.147676
O       0.029960   -1.857205    1.695218
H      -0.132236    1.939907   -1.057773
H      -1.065385    1.865175    0.435832
H       0.686453    2.143083    0.500147
H      -1.164178   -0.278500   -1.701353
H      -0.974443   -1.702881   -0.656293
H      -2.026440   -0.371576   -0.162090
H       1.449703   -1.463616   -0.946987
H       3.681959   -0.357057    0.284838
H       2.300264   -0.462670    2.839122
H      -0.686553   -1.548343    2.261918
