13

O      -0.214842   -0.085412    0.006917
C      -0.096221    1.103983    0.099725
O      -1.140001    2.022617   -0.082587
C      -0.696304    3.321814    0.158862
C       0.609981    3.249698    0.433010
C       1.988161    3.673631    0.913533
C       2.333999    2.131316    0.899323
N       0.977434    1.916632    0.360230
H      -1.430997    4.103791    0.095537
H       2.567219    4.270917    0.206904
H       2.020501    4.144649    1.897115
H       3.131818    1.824376    0.220375
H       2.487222    1.683969    1.884058
