17

C      -0.369089    1.409910   -0.123695
N      -0.001253    0.001564    0.021347
C       1.304083   -0.508676   -0.392639
C       2.426372    0.338192   -0.890675
O       2.620709    1.502020   -0.622876
C       0.878533   -0.439338    1.082226
C       1.537043    0.501766    2.075875
C       0.486671   -1.713948    1.667434
N       0.202246   -2.724432    2.151222
H       0.453750    2.118168   -0.000783
H      -0.792132    1.537845   -1.123753
H      -1.155873    1.623818    0.604881
H       1.259850   -1.484412   -0.872426
H       3.107985   -0.207340   -1.578267
H       1.977089    1.363383    1.576596
H       0.796609    0.844097    2.805212
H       2.322878   -0.027406    2.621214
