16

C      -0.041783    1.427289    0.143004
N      -0.030897   -0.021930    0.163748
C      -1.073271   -0.685218   -0.117248
N      -2.315086   -0.052456   -0.498463
N      -3.392059   -0.656936   -0.334100
N      -3.327959   -1.943121    0.185030
C      -2.163950   -2.675582    0.039048
C      -2.287975   -4.169165    0.069360
N      -1.038393   -2.085731   -0.131909
H       0.793532    1.768722   -0.479206
H      -0.969495    1.880656   -0.219893
H       0.159670    1.793953    1.157121
H      -4.228515   -2.397830    0.154310
H      -2.927417   -4.527138   -0.745239
H      -1.294965   -4.605760   -0.031564
H      -2.733245   -4.501539    1.013695
