18

O      -0.092604    0.339865    1.012824
C      -0.102744    1.388600    0.408081
C      -1.260783    1.991227   -0.397834
C      -0.842960    3.449153   -0.666260
C      -1.428080    4.401536    0.403788
C      -1.055014    5.795809    0.200095
C      -0.731856    6.937678    0.006988
C       0.704893    3.390273   -0.595046
N       0.939150    2.272285    0.301855
H      -1.356991    1.417886   -1.326454
H      -2.201829    1.887476    0.146936
H      -1.164647    3.797997   -1.649709
H      -2.521298    4.310686    0.398545
H      -1.098247    4.072786    1.398267
H      -0.458218    7.951575   -0.150131
H       1.139683    3.213705   -1.589024
H       1.129257    4.319920   -0.204574
H       1.850779    2.021550    0.650280
