15

O      -0.005307   -0.029503   -0.086168
C      -0.056162    1.153742   -0.033851
C      -1.253629    2.213275    0.194369
C      -0.192689    2.963228    1.040434
C       0.893217    4.114278    0.993720
O       1.922698    3.027440    1.029264
C       0.897976    2.370223    0.160829
C       0.918309    3.320966   -1.066933
C       0.924317    4.515840   -0.479701
H      -1.540862    2.690529   -0.743961
H      -2.127974    1.813783    0.709993
H      -0.145863    2.510967    2.034599
H       1.017355    4.844182    1.792230
H       0.952051    3.024671   -2.104548
H       0.967268    5.515542   -0.885060
