18

C      -0.054732    1.579853    0.019302
C      -0.023697    0.051624    0.079834
C      -1.444629   -0.551799    0.025444
O      -2.116807   -0.187323   -1.158290
O       0.665055   -0.446165   -1.092944
C       1.731030   -1.224942   -0.731210
N       2.441334   -1.775423   -1.624235
C       1.793118   -1.229605    0.743701
C       0.789593   -0.495178    1.220985
H       0.957709    1.978072   -0.078150
H      -0.654549    1.899372   -0.835060
H      -0.506817    1.985275    0.929966
H      -1.362665   -1.643974    0.129106
H      -2.041158   -0.173140    0.862135
H      -1.561161   -0.485596   -1.889010
H       3.190463   -2.312019   -1.191133
H       2.554097   -1.760720    1.298754
H       0.551543   -0.294377    2.257839
