19

O       0.160858    1.367346   -0.057011
C       0.066698   -0.037492    0.142024
C      -1.352442   -0.517184    0.112516
C      -2.418736   -0.172847    1.159519
C      -2.936187   -1.646684    1.076136
O      -4.276100   -1.873737    0.640336
C      -1.916202   -1.965427   -0.007015
C      -2.048957   -0.990393   -1.137573
O      -3.265183   -0.475310   -1.587301
H      -0.308673    1.572423   -0.872909
H       0.661433   -0.593819   -0.601754
H       0.521628   -0.222108    1.122386
H      -2.007849    0.077948    2.139733
H      -3.135502    0.594398    0.855069
H      -2.742912   -2.195837    2.004788
H      -4.877617   -1.540767    1.314987
H      -1.397485   -2.911611   -0.110201
H      -1.368994   -1.191713   -1.964530
H      -3.964216   -0.912917   -1.080904
