25

C       0.321414    1.490053   -0.233545
C      -0.033237    0.026895    0.061927
C       0.698332   -0.464022    1.312559
O       2.098422   -0.374661    1.084908
C      -1.549062   -0.206007    0.216205
C      -2.348400    0.081139   -1.039410
C      -2.443587   -0.939619   -2.151551
C      -3.672756   -0.584699   -1.348428
C      -4.333114   -1.594438   -0.434385
H       1.405754    1.618718   -0.250970
H      -0.077147    1.816685   -1.198008
H      -0.086100    2.153452    0.540075
H       0.323154   -0.590639   -0.773859
H       0.397826    0.148938    2.179539
H       0.402521   -1.503618    1.528547
H       2.551599   -0.612489    1.898507
H      -1.711640   -1.245450    0.524657
H      -1.925067    0.418939    1.039701
H      -2.285971    1.114761   -1.368897
H      -2.368708   -0.610642   -3.182450
H      -1.998596   -1.913824   -1.967338
H      -4.385316    0.059177   -1.858958
H      -3.607867   -2.273464    0.022815
H      -4.884778   -1.103639    0.375780
H      -5.046022   -2.211291   -0.993023
