15

N      -0.191807    1.280090   -0.315942
C      -0.030782    0.084926    0.062257
C      -1.182383   -0.893827   -0.025342
C      -1.056267   -2.053611    0.933579
C       0.143522   -2.425827    1.387399
C       1.378875   -1.689652    0.987839
O       1.167172   -0.349047    0.546443
C      -2.243716   -2.758235    1.295863
N      -3.223891   -3.311172    1.568932
H       0.677575    1.807066   -0.213587
H      -2.105008   -0.333962    0.134511
H      -1.236349   -1.280122   -1.052509
H       0.262981   -3.282304    2.041658
H       2.070001   -1.617739    1.834649
H       1.906243   -2.244875    0.195988
