23

C      -0.022414    1.533798    0.046052
C      -0.004358    0.077969    0.051925
C       0.008845   -1.125756    0.053697
C       0.011153   -2.583729    0.061043
C      -1.395670   -3.201127   -0.106016
O      -2.006248   -2.792060   -1.322838
C      -1.402386   -4.739632    0.057973
C      -2.847884   -5.248955    0.135528
C      -0.632129   -5.462955   -1.056974
H       0.742721    1.940344   -0.624877
H      -0.992577    1.916945   -0.289461
H       0.165722    1.940930    1.045852
H       0.667651   -2.955257   -0.738805
H       0.446425   -2.953630    0.998964
H      -2.036434   -2.777836    0.676573
H      -1.378273   -2.936923   -2.038160
H      -0.907284   -4.958042    1.014854
H      -3.392125   -4.982753   -0.775423
H      -2.878446   -6.337116    0.250830
H      -3.379898   -4.805597    0.983976
H      -0.662227   -6.545857   -0.902743
H      -1.083118   -5.263925   -2.035898
H       0.421607   -5.169917   -1.099957
