14

C       0.002594    1.432881   -0.224262
N       0.005842   -0.018939   -0.205318
C      -1.047062   -0.625557    0.150122
O      -2.202805    0.051948    0.521545
C      -3.303862   -0.657465    0.894724
C      -3.279994   -1.997548    0.905693
F      -4.348555   -2.697936    1.268022
N      -2.184570   -2.738654    0.554753
C      -1.134837   -2.082798    0.199356
H       0.981977    1.789865   -0.548453
H      -0.759368    1.829424   -0.909242
H      -0.213229    1.853006    0.767657
H      -4.147975   -0.038997    1.164421
H      -0.237235   -2.622631   -0.089139
