21

C      -0.090754    1.537290    0.092545
C      -0.048731    0.027546   -0.072912
C       0.742820   -0.442499   -1.289934
N       0.909580   -1.892694   -1.321264
C       1.517484   -2.407899   -0.085701
C       3.044974   -2.221288   -0.107177
C       0.944629   -1.803226    1.191381
N       0.962991   -2.455166    2.276550
O       0.517560   -0.505466    1.146130
H       0.922486    1.943522    0.169414
H      -0.587959    1.999806   -0.765537
H      -0.638522    1.808425    0.998628
H      -1.075418   -0.364528   -0.151273
H       0.233333   -0.120312   -2.204358
H       1.731682    0.031616   -1.288012
H      -0.000301   -2.326036   -1.448442
H       1.312159   -3.479521   -0.036921
H       3.326131   -1.164208   -0.078395
H       3.489811   -2.709744    0.762437
H       3.450943   -2.660780   -1.021775
H       0.583809   -1.882442    3.034598
