21

C       0.180197    1.633088    0.056522
C      -0.016144    0.120578    0.024026
C       0.596151   -0.475657   -1.268417
O       0.997677   -1.819617   -1.180877
C       0.003056   -2.813496   -1.181364
C      -0.851902   -2.884647    0.096688
O      -0.072261   -2.720281    1.266306
C      -0.103073   -1.442942    1.844193
O       0.605359   -0.437513    1.176175
H       1.245963    1.868551    0.134870
H      -0.211416    2.097641   -0.854784
H      -0.333010    2.071166    0.916370
H      -1.094011   -0.093706    0.058234
H      -0.108506   -0.319517   -2.103762
H       1.514918    0.073536   -1.501373
H      -0.668633   -2.715206   -2.052791
H       0.554467   -3.752787   -1.288143
H      -1.670518   -2.152067    0.074835
H      -1.314311   -3.879059    0.139669
H      -1.154619   -1.126553    1.975500
H       0.382349   -1.552687    2.816553
