23

C       0.056553    1.541335    0.024173
C       0.001696    0.011021   -0.005432
C      -1.460379   -0.458391   -0.114274
C       0.816592   -0.590468   -1.193986
C       1.278357   -1.966791   -0.725074
C       2.529364   -2.027506    0.135790
C       1.188291   -1.999136    0.791628
O       0.838278   -3.146161    1.508162
C       0.653588   -0.636726    1.250798
H       1.088855    1.897279    0.111741
H      -0.368904    1.970527   -0.890181
H      -0.508947    1.945035    0.871711
H      -1.934814   -0.064379   -1.019785
H      -1.524437   -1.551833   -0.159352
H      -2.049279   -0.123026    0.746626
H       0.205167   -0.649749   -2.099985
H       1.672029    0.053044   -1.435030
H       1.036635   -2.847964   -1.308682
H       3.049951   -2.978514    0.164650
H       3.169997   -1.151683    0.195959
H      -0.116497   -3.259101    1.442489
H       1.461897   -0.006865    1.641210
H      -0.066938   -0.764492    2.065100
