20

C       0.087625    1.615792   -0.212160
C       0.037243    0.092535   -0.020365
N       0.600335   -0.688356   -1.111152
C       2.047984   -0.738216   -1.214109
C      -0.117497   -0.785592   -2.290492
N       0.490372   -1.105669   -3.436325
N      -0.519318   -1.177145   -4.342112
C      -1.726295   -0.893811   -3.811348
C      -1.522121   -0.628550   -2.475444
H       1.118835    1.967468   -0.316087
H      -0.464351    1.913283   -1.108682
H      -0.356746    2.126140    0.648951
H       0.580408   -0.182898    0.890846
H      -0.998506   -0.227524    0.135955
H       2.339676   -1.596434   -1.822587
H       2.485218    0.158439   -1.680465
H       2.469769   -0.852107   -0.211229
H      -0.297308   -1.405648   -5.294288
H      -2.626783   -0.902292   -4.405661
H      -2.273038   -0.368441   -1.749382
