20

C      -0.046940    1.506827    0.032044
C      -0.037037    0.052227    0.002993
C      -0.034929   -1.152963   -0.006693
C      -0.002617   -2.577217   -0.067316
C       0.790409   -3.414942   -1.093869
C      -0.380893   -4.457672   -1.120964
C      -0.086879   -5.921240   -0.815113
C      -1.108800   -3.616092   -0.056574
N      -0.297330   -3.379591    1.125737
H       0.840286    1.920087   -0.460755
H      -0.927955    1.912739   -0.478019
H      -0.057859    1.881829    1.061525
H       0.930636   -2.909880   -2.051206
H       1.763118   -3.771139   -0.736575
H      -0.910132   -4.380770   -2.076075
H       0.416993   -6.043083    0.150607
H      -1.008945   -6.511735   -0.784675
H       0.565313   -6.357377   -1.579327
H      -2.180431   -3.474294    0.032487
H       0.402814   -4.102451    1.286643
