16

C       0.052220    1.449005   -0.011896
N      -0.001290   -0.002869    0.017540
C      -1.148335   -0.692197    0.137493
C      -1.176353   -2.062182    0.157224
C       0.044445   -2.793694    0.051075
O       0.193649   -4.017999    0.031009
C       1.239960   -1.904651   -0.055873
N       2.417334   -2.569592   -0.111188
N       1.218484   -0.596052   -0.085644
H       0.658618    1.817751    0.820143
H       0.504505    1.786426   -0.948640
H      -0.958875    1.849508    0.068892
H      -2.046806   -0.090644    0.213386
H      -2.115759   -2.591746    0.245580
H       2.323065   -3.565563   -0.248474
H       3.253839   -2.090739   -0.394917
