21

C      -0.048045    1.562342   -0.071192
C       0.047506    0.035997   -0.011253
C       0.661069   -0.547826   -1.290731
O       0.675432   -1.964069   -1.278720
C       1.461705   -2.477124   -0.219354
C       0.935087   -2.033517    1.150146
C       0.794903   -0.498505    1.248130
C       2.140556    0.175964    1.454815
O       2.298945    1.175205    2.110659
H       0.931968    2.028872   -0.211347
H      -0.690209    1.872971   -0.901828
H      -0.468613    1.967372    0.853747
H      -0.968818   -0.374567    0.056331
H       0.067093   -0.255684   -2.162197
H       1.683213   -0.156209   -1.441080
H       1.427018   -3.566699   -0.309410
H       2.513384   -2.169200   -0.350366
H      -0.050867   -2.484455    1.307662
H       1.592235   -2.417494    1.940082
H       0.199750   -0.227244    2.127246
H       3.012310   -0.313135    0.962819
