19

C       0.171209    1.409482    0.122171
N       0.199244   -0.041997    0.075053
C       0.462847   -0.618215   -1.006580
O       0.760111    0.013391   -2.200616
C       0.758238   -0.935443   -3.266191
C       0.757443   -2.296686   -2.582970
C       0.040648   -3.439963   -3.252014
C       1.836675   -2.503977   -1.591048
N       0.491475   -2.035574   -1.152585
H       1.078229    1.778634    0.617068
H       0.098758    1.889450   -0.860896
H      -0.676974    1.726396    0.737486
H      -0.146589   -0.806169   -3.873960
H       1.634100   -0.754152   -3.897140
H       0.535919   -3.711182   -4.191014
H       0.030971   -4.319752   -2.604476
H      -0.996496   -3.171555   -3.478555
H       2.080355   -3.508136   -1.259506
H       2.654267   -1.789024   -1.546675
