17

C       0.023241    1.474301    0.147195
C      -0.059543   -0.034243   -0.101979
C      -1.471725   -0.563914    0.085409
O      -1.452106   -1.973292   -0.175186
C      -2.706247   -2.584130   -0.075561
C      -2.610070   -3.941308   -0.642149
N      -2.558923   -4.995746   -1.106880
C      -3.199881   -2.646820    1.324755
N      -3.574537   -2.641967    2.416692
H       1.046594    1.832681    0.008733
H      -0.619870    2.030577   -0.543294
H      -0.283143    1.728911    1.167353
H       0.271890   -0.273198   -1.118419
H       0.606340   -0.571146    0.582230
H      -1.827748   -0.379324    1.109020
H      -2.172849   -0.075167   -0.609901
H      -3.466463   -2.035039   -0.658296
