16

C      -0.082165    1.403761    0.274005
N      -0.072181   -0.036939    0.256629
C      -1.157546   -0.960834   -0.055572
C      -1.533279   -1.081601   -1.549866
O      -0.459223   -2.018346   -1.790797
C      -0.069944   -2.018207   -0.399426
C       0.953048   -0.922189   -0.093727
N       2.213208   -0.879174   -0.180687
H       0.915692    1.760793    0.544575
H      -0.349045    1.840546   -0.699400
H      -0.787369    1.773483    1.025765
H      -1.938059   -1.052991    0.700651
H      -2.510056   -1.547453   -1.729465
H      -1.445400   -0.170899   -2.153665
H       0.044165   -3.015348    0.024594
H       2.583456    0.052525    0.017620
