12

O      -0.063659   -0.004969    0.003909
N      -0.020352    1.217213    0.006795
O       0.998372    1.893817    0.002195
C      -1.300878    1.933447    0.017121
C      -1.335208    3.322390    0.020922
N      -2.496594    3.975129    0.030278
C      -3.597269    3.217886    0.035623
N      -3.666391    1.883663    0.032655
C      -2.502329    1.235710    0.023279
H      -0.415920    3.898137    0.016320
H      -4.545862    3.748459    0.043254
H      -2.511747    0.151045    0.020552
