17

O       0.001709    0.019391   -0.006686
C      -0.015877    1.216892    0.007449
C      -1.177740    2.223218    0.052665
C      -0.801947    2.759805    1.463707
C       0.506361    3.391357    0.945128
O      -0.061938    4.353157    0.044419
C      -0.602065    3.396581   -0.878905
C       0.724041    2.816112   -1.411773
C       1.115918    2.257685   -0.013638
H      -2.185437    1.859623   -0.126322
H      -1.475513    3.523014    1.855434
H      -0.679303    1.954655    2.194766
H       1.185650    3.870173    1.647022
H      -1.295364    3.871655   -1.569553
H       0.624837    2.025162   -2.161646
H       1.374772    3.607789   -1.785172
H       2.133920    1.919721    0.157075
