21

C      -0.458163    1.293122    0.089318
O      -0.227927   -0.091269   -0.102168
C       0.658714   -0.640784    0.818500
O       0.130312   -0.636745    2.163520
C       0.054227   -2.049578    2.451582
C       1.438156   -2.550479    1.973720
C       0.825670   -2.146079    0.596004
C      -0.560448   -2.639452    1.151567
C      -0.862795   -4.130204    1.085626
H       0.480286    1.865669    0.032943
H      -1.122159    1.620966   -0.713296
H      -0.931757    1.488576    1.058429
H       1.599887   -0.068345    0.817280
H      -0.351755   -2.199716    3.451457
H       2.307279   -1.995454    2.335233
H       1.600261   -3.622161    2.078369
H       1.235144   -2.462102   -0.362373
H      -1.414610   -2.067433    0.783200
H      -0.040515   -4.760459    1.434753
H      -1.742087   -4.369111    1.694021
H      -1.089364   -4.426094    0.055593
