19

O      -0.115136    1.438628   -0.260311
C      -0.003886    0.017682   -0.296511
C      -1.381617   -0.526575    0.071149
O      -1.764839   -0.042591    1.328134
C      -2.419058   -0.418310   -1.097597
C      -2.211907   -1.931636   -1.409019
C      -1.469861   -2.059562   -0.074922
C      -0.637340   -3.121996    0.494181
O      -1.964804   -2.870461    0.971144
H       0.767629    1.818567   -0.267610
H       0.304303   -0.335457   -1.291648
H       0.729528   -0.338698    0.440819
H      -1.496920    0.885975    1.342721
H      -3.412924   -0.213468   -0.695952
H      -2.190542    0.296797   -1.889912
H      -3.113653   -2.541931   -1.486252
H      -1.578176   -2.122891   -2.279684
H      -0.503396   -4.054507   -0.053628
H       0.159525   -2.875939    1.195420
