19

C      -0.242462    1.550213    0.025266
C      -0.014885    0.042094    0.100743
C       0.603301   -0.578270   -1.178322
C       1.501286   -1.695227   -0.669216
O       2.326278   -2.335367   -1.273576
C       1.309367   -1.827653    0.844767
O       2.474998   -2.301096    1.469325
C       0.945078   -0.389616    1.234896
O       2.119285    0.399099    1.181570
H       0.706926    2.072658   -0.116472
H      -0.907136    1.803317   -0.806789
H      -0.699419    1.925744    0.946677
H      -0.974446   -0.452455    0.299872
H      -0.138471   -0.958071   -1.887385
H       1.229707    0.135654   -1.723381
H       0.450096   -2.494363    1.034240
H       2.995906   -2.712526    0.760841
H       0.466431   -0.321524    2.221896
H       2.821978   -0.158524    1.544134
