23

C      -0.924963    0.945111   -0.408546
C       0.163315   -0.083603   -0.145595
C       1.425126   -0.085442   -1.052201
C       2.320764   -0.291175    0.202351
C       3.560687    0.595421    0.322183
C       1.085781    0.119053    1.087617
C       2.634338   -1.769061    0.442350
C       3.492619   -2.113190    1.651624
O       2.200367   -2.643247   -0.275086
H      -0.510871    1.960008   -0.435659
H      -1.418473    0.761981   -1.369576
H      -1.695652    0.920907    0.370347
H      -0.269688   -1.088184   -0.122961
H       1.487249   -0.865592   -1.811388
H       1.603048    0.892518   -1.510947
H       3.291269    1.640409    0.139727
H       4.014153    0.542211    1.316929
H       4.325185    0.317415   -0.412735
H       1.156832    1.171025    1.384668
H       0.879985   -0.477388    1.981603
H       3.213848   -1.526160    2.532025
H       3.401095   -3.178828    1.865111
H       4.542953   -1.888052    1.434859
