21

C      -0.403195    1.037083    0.122987
O       0.536272    0.013895   -0.135817
C       0.946867   -0.646340    1.019634
C       0.131198   -1.718848    1.694795
C      -0.609578   -2.572387    0.698654
C      -0.048030   -3.973771    0.673362
C       0.696754   -2.880066   -0.050987
C       0.957895   -2.897085   -1.531994
C       1.466261   -2.041008    0.948173
H       0.015120    1.814298    0.781177
H      -0.660985    1.489848   -0.837208
H      -1.314814    0.641524    0.593110
H       1.482960   -0.000322    1.721101
H      -0.036838   -1.715361    2.767251
H      -1.572135   -2.336905    0.258830
H       0.352248   -4.416147    1.582228
H      -0.573948   -4.675500    0.031292
H       0.156357   -3.416942   -2.067526
H       1.027391   -1.877968   -1.921553
H       1.895709   -3.416987   -1.763285
H       2.424125   -2.310517    1.382221
