19

C       0.064232    1.415106   -0.173015
C       0.003320   -0.069334   -0.026856
O       0.551430   -0.914409   -1.089605
C       0.056492   -1.865930   -0.095800
C       0.208737   -3.329178   -0.360462
C       0.508283   -1.002702    1.128513
C      -0.883960   -1.076244    1.762287
O      -1.203796    0.045345    2.558658
C      -1.212187   -1.020547    0.255123
H       1.102564    1.747889   -0.269359
H      -0.483107    1.736012   -1.065141
H      -0.379331    1.884449    0.708235
H       1.265482   -3.588830   -0.476862
H      -0.202432   -3.914677    0.467846
H      -0.317637   -3.609592   -1.278073
H       1.490442   -0.992404    1.601352
H      -1.131974   -2.015769    2.275114
H      -2.139605    0.001857    2.778781
H      -2.171783   -1.033013   -0.264208
