20

O      -0.627894    0.934074    1.117995
C      -0.230353    1.390339    0.078407
C       1.236191    1.632111   -0.242900
N       1.367606    2.703705   -1.215740
C       1.605360    4.055679   -0.691526
C       2.674507    3.304089   -1.396455
C       4.030957    2.886185   -0.802992
C       4.705529    3.579063   -2.024554
C       3.325135    3.624035   -2.745753
H      -0.918754    1.661978   -0.752376
H       1.783032    1.785736    0.700253
H       1.618345    0.703053   -0.692337
H       1.063138    4.854660   -1.190975
H       1.702781    4.172921    0.387671
H       4.287344    3.256349    0.192415
H       4.171131    1.800156   -0.817449
H       5.074833    4.576882   -1.777184
H       5.503222    3.024799   -2.521850
H       3.195968    2.805275   -3.459977
H       3.037824    4.560505   -3.229626
