13

O      -0.232875    0.232469    0.741487
C       0.106458    0.955042   -0.165448
C       1.272432    1.805523   -0.126776
C       2.239385    2.529544   -0.126386
C       3.421839    3.341826   -0.076694
O       3.843311    3.991903   -1.273420
C       3.384966    4.829214   -0.216375
C       2.085308    5.534910   -0.460637
O       1.799456    6.574669    0.071149
H      -0.466386    1.016310   -1.111843
H       4.234030    2.941167    0.528885
H       4.143367    5.407455    0.309170
H       1.418163    5.018367   -1.181516
