15

O       0.050830    0.157540    0.697724
C       0.230145    1.211445    0.166291
O       0.759438    2.270608    0.803701
C       0.927291    3.493712    0.065037
C       2.364141    3.901185    0.041473
N       2.713661    5.105859    0.489523
N       4.044160    5.155952    0.310010
C       4.553119    4.020526   -0.227892
C       3.485554    3.173367   -0.422219
H      -0.016304    1.427213   -0.893096
H       0.535329    3.355194   -0.951507
H       0.339383    4.269978    0.559970
H       4.541243    5.985909    0.585758
H       5.607878    3.907403   -0.422130
H       3.512619    2.174597   -0.826088
