16

C       0.061428    1.291679   -0.094117
O      -0.087047   -0.128822   -0.175836
C      -1.308115   -0.594089    0.066730
N      -2.313692    0.148320    0.276882
N      -1.308950   -2.011745    0.029104
C      -2.394144   -2.814160   -0.198451
C      -1.951634   -4.109050   -0.125960
C      -0.567494   -3.994193    0.154873
N      -0.178008   -2.733573    0.245354
H       1.119752    1.480865   -0.273100
H      -0.554020    1.786906   -0.849381
H      -0.236457    1.653252    0.893301
H      -3.145637   -0.385752    0.507486
H      -3.364068   -2.402109   -0.422818
H      -2.533988   -5.005087   -0.265673
H       0.155885   -4.784377    0.295680
