21

C      -0.354679   -1.509837   -2.869352
C      -1.246605   -2.597738   -2.260720
C      -2.120509   -2.070847   -1.135036
C      -2.671241   -2.905369   -0.024728
C      -2.407641   -4.387379    0.144815
O      -2.541005   -4.803772    1.493560
C      -1.602004   -1.840734    0.291382
C      -0.231385   -2.218151    0.693314
O       0.409005   -1.625092    1.530727
H       0.228692   -1.903052   -3.707101
H      -0.953405   -0.671847   -3.242380
H       0.345702   -1.110565   -2.128503
H      -1.905101   -3.008342   -3.036824
H      -0.626195   -3.433804   -1.925241
H      -2.778483   -1.269250   -1.464594
H      -3.658796   -2.626104    0.333340
H      -3.164905   -4.951069   -0.411013
H      -1.431852   -4.676708   -0.267992
H      -1.916817   -4.295931    2.023164
H      -1.948578   -0.949280    0.803598
H       0.203927   -3.103702    0.180321
