14

O      -0.078447    1.305853   -0.084859
N       0.037794   -0.086998    0.019251
C      -1.096336   -0.644894   -0.020684
C      -2.562687   -0.205404   -0.029019
C      -2.909106   -1.708532    0.149395
O      -2.343922   -2.389453   -0.979812
C      -1.462143   -2.089035    0.115460
C      -4.009401   -2.275758    0.845686
C      -4.957775   -2.712150    1.441858
H       0.839930    1.593707   -0.033823
H      -2.808501    0.413475    0.837733
H      -2.948901    0.252914   -0.941093
H      -0.929470   -2.909832    0.578011
H      -5.792131   -3.109400    1.965825
