19

C      -0.007914    1.508333   -0.021050
N       1.250161    0.743539   -0.020667
C      -0.032138    0.023483    0.054795
C      -0.316977   -0.726880    1.312729
C       0.085089   -0.163489    2.669158
O      -0.028827   -1.254583    3.582060
C       0.280842   -2.452061    2.873991
C      -0.198472   -2.204631    1.456589
N      -1.518569   -1.577187    1.310475
H      -0.175639    2.107031    0.869975
H      -0.342152    1.974782   -0.943922
H       1.632215    0.687392   -0.960329
H      -0.380238   -0.496538   -0.834837
H       1.112943    0.221857    2.613307
H      -0.573517    0.631392    3.035534
H       1.363719   -2.657588    2.872839
H      -0.227539   -3.275855    3.386962
H       0.119893   -2.862900    0.654397
H      -1.978583   -1.528593    2.219011
