13

N       0.051747   -1.127628    0.113826
C      -0.010112    0.028393    0.067157
C      -0.043805    1.446311   -0.006924
C      -1.153915    2.203452   -0.036800
C      -0.788366    3.647462   -0.015995
O      -0.060282    4.018213    1.176454
C       0.686805    3.709833    0.002611
C       1.228320    2.287505   -0.033593
H      -2.168410    1.827738   -0.041825
H      -1.433399    4.416275   -0.427428
H       1.252793    4.531131   -0.427060
H       1.876739    2.072628    0.822215
H       1.810109    2.098143   -0.942776
