10

O      -0.090705    0.057985   -0.251063
C      -0.020992    1.210820   -0.000909
O      -1.010245    2.075520    0.368359
C      -0.087154    3.199815    0.508818
C       1.083473    2.308951    0.029969
C       2.202785    2.103640    0.926385
N       3.087074    1.948733    1.653677
H      -0.363706    4.018419   -0.156067
H      -0.030403    3.530940    1.545957
H       1.437551    2.543729   -0.977168
