17

N       0.145572    1.355908    0.569370
C       0.034437    0.035797    0.094302
C      -1.145978   -0.693466   -0.043360
N      -0.776979   -1.902841   -0.575916
C      -0.996444   -3.362945   -0.598708
C       0.564047   -3.497798   -0.842102
O       1.000003   -4.074823   -2.045912
C       0.581059   -1.984457   -0.687678
C       1.142372   -0.792566   -0.277854
H       0.898797    1.864597    0.125077
H      -0.711503    1.883246    0.465433
H      -2.171904   -0.395574    0.101845
H      -1.344996   -3.773803    0.354252
H      -1.637078   -3.709720   -1.415122
H       1.065770   -4.052510   -0.044828
H       0.765784   -3.469625   -2.758536
H       2.185133   -0.517242   -0.239825
