21

C       0.238531    1.559292   -0.108629
C       0.051617    0.071804    0.084041
O       0.827711   -0.729065   -0.850064
C       1.348083   -1.558650    0.214410
C       2.865334   -1.456357    0.410279
C       3.004005   -0.674397    1.734895
C       4.189984    0.269714    1.817789
O       1.796074    0.092023    1.854611
C       0.730015   -0.634520    1.282137
H       1.276108    1.841951    0.077374
H      -0.031523    1.837201   -1.132053
H      -0.404299    2.117588    0.580209
H      -1.010812   -0.201655    0.011742
H       0.970038   -2.583737    0.144480
H       3.358798   -2.430448    0.457565
H       3.289660   -0.891612   -0.424854
H       3.050228   -1.390662    2.572474
H       4.160671    0.990938    0.995198
H       4.180698    0.820603    2.762347
H       5.127473   -0.291628    1.756043
H       0.075493   -1.059274    2.051178
