25

C      -0.012372    1.566567    0.002655
C       0.003063    0.030721    0.020036
C       0.537486   -0.496162   -1.329754
C       0.722887   -2.016627   -1.439450
C       1.918970   -2.597195   -0.661955
C       2.020210   -2.203504    0.819048
C       0.648369   -2.014690    1.529559
C       0.754722   -0.484435    1.264094
C       2.286539   -0.690005    1.072057
H       1.007718    1.968059   -0.028447
H      -0.544068    1.950160   -0.874758
H      -0.500774    1.971067    0.895202
H      -1.037972   -0.313634    0.116496
H      -0.162144   -0.169932   -2.109377
H       1.488368    0.002087   -1.564276
H      -0.202302   -2.514548   -1.121929
H       0.849736   -2.280966   -2.496253
H       1.871841   -3.691357   -0.735705
H       2.851707   -2.300375   -1.161610
H       2.720751   -2.880567    1.317268
H      -0.218977   -2.545874    1.126737
H       0.716725   -2.235308    2.598723
H       0.472959    0.141024    2.117246
H       2.832595   -0.531156    2.006278
H       2.789762   -0.123084    0.283164
