19

C       0.200695    1.098071   -0.462806
C       0.391668   -0.271812    0.133976
O       1.707916   -0.652035    0.538928
C       0.702447   -0.537338    1.562951
C       0.864264    0.552637    2.595152
C       0.228110   -1.864000    2.128671
O      -0.537110   -1.903670    3.060504
C       0.804442   -3.116151    1.478558
O       0.195145   -4.247247    2.044131
H       0.771653    1.860991    0.067969
H       0.530623    1.094365   -1.506930
H      -0.859070    1.373182   -0.447345
H      -0.142157   -1.061242   -0.400318
H       1.079596    1.519409    2.140185
H      -0.049097    0.621833    3.189972
H       1.686111    0.304681    3.274558
H       0.666361   -3.055517    0.387477
H       1.895127   -3.083151    1.641764
H       0.606840   -5.026218    1.659376
