20

C       0.001346    1.633320   -0.058119
C       0.028169    0.103304   -0.066072
C      -1.374452   -0.523828    0.064365
C      -1.380806   -2.022601    0.048464
C      -1.308954   -2.883060    1.134088
N      -1.169972   -2.653256    2.508772
N      -1.334975   -4.144264    0.633259
N      -1.430013   -4.179022   -0.719504
C      -1.447711   -2.898470   -1.063900
H       1.008374    2.051701   -0.150768
H      -0.598744    2.023344   -0.888012
H      -0.434644    2.018940    0.870844
H       0.491682   -0.258794   -0.991591
H       0.662988   -0.264499    0.750027
H      -1.841276   -0.157168    0.990828
H      -2.006700   -0.147607   -0.749976
H      -1.140043   -1.662903    2.714097
H      -1.910164   -3.075365    3.059362
H      -1.249662   -5.004954    1.146126
H      -1.525496   -2.628873   -2.108483
