20

C       0.023912    1.622062   -0.077331
C       0.072130    0.106248    0.037044
C       1.036061   -0.706961   -0.875716
C       1.303460   -1.658499    0.321566
C       2.722055   -2.171092    0.584688
C       3.227894   -2.991274   -0.513723
N       3.609505   -3.634304   -1.395137
C       0.751786   -0.552921    1.280964
O       1.743318    0.223836    1.923870
H       1.016103    2.077681    0.022727
H      -0.367404    1.921032   -1.055232
H      -0.617874    2.061230    0.693061
H      -0.941447   -0.298853   -0.053313
H       0.630410   -1.144764   -1.789392
H       1.927500   -0.127747   -1.144664
H       0.609055   -2.503427    0.294056
H       3.403888   -1.328980    0.742903
H       2.748221   -2.762005    1.507630
H       0.091718   -0.896593    2.081368
H       2.189198    0.773200    1.271004
