15

O       0.340314    1.590187    0.004768
C       0.124967    0.186244   -0.096770
C       0.757294   -0.391117   -1.280754
C       1.330064   -0.835708   -2.238979
C       0.609490   -0.491479    1.190183
C      -0.160853   -0.141521    2.472145
C      -0.556044   -1.618568    2.437739
O      -1.197392   -2.382066    3.080608
O       0.150864   -1.879769    1.282996
H       1.235989    1.773598   -0.299286
H      -0.962247    0.050178   -0.158371
H       1.814658   -1.240281   -3.093649
H       1.699238   -0.450000    1.264084
H       0.436756    0.144296    3.338482
H      -0.989199    0.558723    2.352489
