16

C      -0.068306    1.601803    0.062354
C       0.062431    0.083500   -0.027334
C       0.910933   -0.404719   -1.225967
O       1.652414   -1.493281   -0.683709
C       1.679469   -1.378695    0.677423
N       2.348515   -2.070723    1.483043
O       0.864144   -0.374435    1.084775
C      -1.248519   -0.572198    0.009470
C      -2.327937   -1.098459    0.023693
H       0.924496    2.058195    0.084357
H      -0.622754    1.982057   -0.799996
H      -0.607854    1.879051    0.969960
H       0.308634   -0.762562   -2.061011
H       1.596661    0.380182   -1.566486
H       2.930169   -2.733325    0.975747
H      -3.279777   -1.570195    0.046773
