17

C      -0.072357    1.470777    0.010995
O       1.310932    1.915801    0.015300
C       2.219362    0.768570   -0.091659
C       2.229686    0.010485    1.255234
C       0.944452   -0.784451    1.022185
C       0.999660   -1.551222   -0.313812
O      -0.454691   -1.242175   -0.579819
C       0.158322   -0.014106   -0.087727
C       1.424995   -0.201481   -0.952910
H      -0.561599    1.796780    0.935031
H      -0.602836    1.891759   -0.851351
H       3.169515    1.167664   -0.443260
H       3.114592   -0.621754    1.387240
H       2.165718    0.705886    2.095646
H       0.383583   -1.223844    1.844765
H       1.313031   -2.570211   -0.540929
H       1.331701   -0.055533   -2.026544
