21

C      -1.172954    2.207176   -0.399566
C      -0.905788    0.961377   -1.241542
N      -1.641816   -0.178737   -0.699576
C      -1.363885   -1.546087   -1.111066
C      -0.313187   -1.930241   -2.130462
C      -1.018712   -1.079662    0.286464
C       0.419185   -0.944621    0.764993
C      -1.924562   -1.462869    1.357517
N      -2.623176   -1.789900    2.219004
H      -0.678365    3.079125   -0.838311
H      -2.246265    2.404265   -0.337958
H      -0.795298    2.082619    0.620278
H      -1.278740    1.114145   -2.260986
H       0.178324    0.797340   -1.324919
H      -2.271625   -2.143006   -1.196968
H       0.609822   -1.354610   -2.049321
H      -0.062037   -2.990547   -2.025578
H      -0.708309   -1.784521   -3.141480
H       1.110361   -0.727265   -0.048631
H       0.503686   -0.148344    1.510503
H       0.738365   -1.877997    1.237686
