11

N      -0.065421    1.377767    0.010760
C      -0.033803    0.099689    0.003591
N       1.125227   -0.699856   -0.007583
N       1.215736   -2.045386   -0.015476
N       0.153339   -2.736928   -0.013020
C      -1.074616   -2.078075   -0.002207
C      -1.215670   -0.738258    0.005948
H       0.870057    1.787658    0.007504
H       2.033341   -0.255516   -0.010495
H      -1.925996   -2.748717   -0.000878
H      -2.181296   -0.248488    0.014296
