17

C       0.462363   -0.857784    0.754236
C       0.197561    0.229523    0.316079
C      -0.167423    1.524173   -0.294450
O      -1.082958    2.238807    0.519614
C      -0.459902    3.213682    1.362637
C       0.208248    4.286556    0.461023
C       1.353963    3.245229    0.345346
C       0.970493    2.768471    1.773061
O       0.985191    2.274804   -0.640336
H       0.702653   -1.813021    1.152341
H      -0.691396    1.320640   -1.235008
H      -1.200911    3.488868    2.113538
H      -0.312262    4.558579   -0.458645
H       0.506778    5.176260    1.020929
H       2.373406    3.551023    0.108914
H       1.382859    3.440084    2.529152
H       1.146595    1.731542    2.054929
