16

C       0.092573    1.574978   -0.135926
C      -0.061683    0.073181    0.076804
O       0.524065   -0.631110   -1.056776
C       1.477602   -1.627646   -0.671114
C       1.535685   -1.446806    0.806867
C       0.677882   -0.502828    1.245214
C       0.887665   -0.513387    2.646465
N       1.801502   -1.395354    2.994716
O       2.225482   -2.007010    1.793688
H       1.149661    1.853520   -0.156795
H      -0.367064    1.867025   -1.083859
H      -0.400696    2.126254    0.671524
H      -1.131759   -0.180024    0.107527
H       1.129212   -2.628486   -0.965213
H       2.436448   -1.442959   -1.173772
H       0.425963    0.073339    3.428334
