18

C      -0.050843    1.527697   -0.024971
C       0.066667    0.015233   -0.016881
O       1.137393   -0.546378   -0.032721
N      -1.142107   -0.700134    0.007458
C      -2.420783   -0.134615    0.024628
C      -3.335776   -1.140251    0.045923
C      -2.612254   -2.375703    0.041863
C      -1.273532   -2.101542    0.018152
C      -0.127654   -3.057827    0.005411
H       0.959118    1.935084   -0.043530
H      -0.600762    1.878752   -0.903146
H      -0.573281    1.890576    0.865042
H      -2.553436    0.932426    0.019884
H      -4.407952   -1.017947    0.062666
H      -3.035477   -3.369085    0.055076
H       0.501468   -2.938442   -0.881051
H       0.530004   -2.927521    0.869355
H      -0.527159   -4.075609    0.018314
