18

C      -0.033216    1.551114    0.034974
C       0.000271    0.017258    0.005068
C       0.765093   -0.517002    1.238758
C      -1.442134   -0.540941   -0.008328
C       0.721462   -0.449822   -1.262404
O       1.181066    0.297181   -2.088497
C       0.869651   -1.982702   -1.497389
O       1.422096   -2.414973   -2.470611
H       0.977245    1.967254    0.029350
H      -0.556457    1.950658   -0.837278
H      -0.546891    1.897241    0.937404
H       0.265380   -0.178444    2.152333
H       0.802411   -1.609935    1.273698
H       1.792681   -0.140803    1.260142
H      -1.996937   -0.181513   -0.880638
H      -1.473312   -1.634626   -0.012637
H      -1.972215   -0.203171    0.888265
H       0.442342   -2.656896   -0.725963
