15

C       0.000637    1.538566   -0.068885
C      -0.027428    0.049455   -0.006532
C      -1.037617   -0.816123   -0.064758
C      -0.505564   -2.227652    0.050518
O       0.915957   -2.066922    0.181905
C       1.233507   -0.731496    0.147359
O       2.360159   -0.332806    0.225295
C      -1.059405   -2.966313    1.181402
C      -1.545139   -3.569212    2.098953
H       0.635184    1.874076   -0.895812
H      -0.999940    1.956777   -0.197105
H       0.441532    1.949635    0.845475
H      -2.094736   -0.609857   -0.165962
H      -0.686375   -2.792506   -0.875034
H      -1.964055   -4.106686    2.914056
