20

O       0.052241   -0.361253   -0.385374
C       0.044142    0.833287   -0.236385
C       1.283172    1.696694   -0.169710
C       1.296470    2.931414   -1.072665
C       0.440509    2.966963   -2.289845
N       0.124787    3.819034   -1.127119
C       2.625703    3.637711   -1.063829
C       2.741868    5.090368   -1.436970
C       2.925233    4.668205   -0.000850
H      -0.924149    1.374396   -0.110950
H       1.390636    2.034017    0.873034
H       2.143608    1.057879   -0.391708
H       0.778044    3.507421   -3.169426
H      -0.201490    2.114858   -2.501774
H      -0.657661    3.437162   -0.603288
H       3.453710    2.996600   -1.356389
H       3.614330    5.399871   -2.001435
H       1.823176    5.611323   -1.679290
H       2.123553    4.917656    0.686179
H       3.918876    4.693292    0.432152
