21

C      -0.086051    1.504343   -0.140730
C       0.044474   -0.013251    0.048400
C       0.817845   -0.364815    1.327152
C      -1.342127   -0.644778    0.074449
O      -2.116583   -0.395023   -1.121672
C      -2.549957   -1.764643   -1.174046
C      -1.542834   -2.191320   -0.082416
C      -0.352948   -2.948912   -0.611343
O       0.238199   -3.802623   -0.000195
H       0.900796    1.970905   -0.218720
H      -0.652039    1.737527   -1.046058
H      -0.604690    1.960372    0.711125
H       0.586595   -0.416100   -0.816891
H       0.299859    0.018637    2.214165
H       0.941177   -1.445161    1.449137
H       1.814931    0.085307    1.307252
H      -1.886362   -0.280189    0.960522
H      -3.599845   -1.881769   -0.877395
H      -2.408151   -2.202175   -2.169953
H      -1.935651   -2.706251    0.794396
H      -0.043676   -2.667709   -1.644684
