21

C      -0.030032    1.510043    0.035786
C      -0.076253   -0.015740   -0.046569
N      -1.449453   -0.553014   -0.037827
C      -2.039252   -0.784858   -1.274433
N      -3.233925   -1.175812   -1.471663
C      -2.032079   -0.721562    1.236728
O      -1.386481   -0.405377    2.217075
C      -3.427872   -1.298655    1.344466
C      -3.858430   -1.471975    2.799897
H       1.008387    1.855839    0.020498
H      -0.554397    1.970834   -0.807792
H      -0.491727    1.851877    0.964518
H       0.410640   -0.368215   -0.960285
H       0.447785   -0.450387    0.804588
H      -1.325484   -0.582732   -2.080971
H      -3.399398   -1.274467   -2.470888
H      -4.115401   -0.651928    0.790444
H      -3.463640   -2.243301    0.792592
H      -3.183348   -2.143589    3.336302
H      -3.853679   -0.516854    3.330689
H      -4.868783   -1.888662    2.842721
