18

C       0.017027    1.493232   -0.008743
C      -0.013949    0.039071    0.003083
C      -0.041059   -1.167024    0.021313
C      -0.060763   -2.583676   -0.003554
C      -0.393379   -3.476417    1.180525
C      -1.196062   -3.625861   -0.077352
O      -2.563478   -3.472374   -0.140963
C      -0.382269   -4.331400   -1.159445
N       0.777834   -3.397895   -0.927813
H       0.819651    1.861898   -0.657325
H      -0.925215    1.912433   -0.379749
H       0.191369    1.899346    0.994042
H       0.329880   -4.227725    1.489658
H      -0.916761   -2.962384    1.980881
H      -2.960699   -3.922089    0.612258
H      -0.140159   -5.389275   -1.006684
H      -0.844754   -4.200256   -2.142484
H       0.962250   -2.863128   -1.771679
