21

C       0.085371    1.550827   -0.005576
C       0.023958    0.020803   -0.003724
C       0.695169   -0.633861   -1.219299
N       2.126778   -0.322939   -1.392719
C       1.730008   -1.597730   -0.758424
C       1.734880   -1.583181    0.755500
N       2.122570   -0.289508    1.363120
C       0.691630   -0.630327    1.229117
C      -0.138839   -0.840269    2.469920
H       1.128140    1.873602   -0.013687
H      -0.416708    1.963959   -0.886727
H      -0.403718    1.968308    0.881290
H      -1.026037   -0.301420   -0.007183
H       0.094256   -0.812811   -2.106643
H       2.386391   -0.506156   -2.359622
H       1.927372   -2.532033   -1.273281
H       1.956225   -2.503242    1.287594
H       2.409344   -0.455827    2.326484
H      -0.438033    0.116780    2.914279
H      -1.053407   -1.401934    2.248862
H       0.422390   -1.397124    3.228392
