14

C      -0.026181    1.538021   -0.004790
C      -0.039932    0.038165    0.005268
C      -1.156197   -0.719145   -0.140283
F      -2.344744   -0.141559   -0.306247
C      -1.136388   -2.144888   -0.126273
C       0.062383   -2.734882    0.041182
O       1.201188   -2.048361    0.190359
C       1.234775   -0.636669    0.183703
O       2.306295   -0.112219    0.325025
H       0.621980    1.909927   -0.804789
H      -1.030904    1.938183   -0.144578
H       0.385672    1.923747    0.933302
H      -2.044794   -2.717328   -0.245072
H       0.222837   -3.805647    0.071469
