18

C      -0.170019    1.610038   -0.163978
C       0.005531    0.124899    0.078972
O       0.916639   -0.532940   -0.912949
C       1.798007   -0.791853    0.178144
C       2.557805   -1.810833    1.078432
C       2.215921   -0.496900    1.942245
C       2.722003    0.329536    0.749788
C       0.785981   -0.572720    1.274158
H       0.770269    2.160814   -0.173552
H      -0.658253    1.765323   -1.131767
H      -0.815545    2.033027    0.613134
H      -0.970389   -0.365249    0.008771
H       2.018506   -2.720829    1.348190
H       3.621289   -1.995896    0.897422
H       2.473463   -0.363592    2.993915
H       3.785743    0.253185    0.513634
H       2.372182    1.357294    0.687102
H       0.225269   -1.459307    1.577358
