14

N       0.091235    1.410088   -0.040201
C      -0.050653    0.029478   -0.011417
C      -1.167252   -0.760952   -0.062986
C      -0.647073   -2.087551   -0.072575
O      -1.405823   -3.192007   -0.108233
N       0.661726   -2.147060   -0.024897
N       1.048540   -0.818711   -0.005094
C       2.386984   -0.448832   -0.070664
O       3.315370   -1.209500   -0.060703
H       0.700420    1.790189    0.672681
H      -0.801509    1.883631   -0.022088
H      -2.199708   -0.454579   -0.066324
H      -0.805329   -3.949894   -0.097091
H       2.488193    0.648125   -0.144767
