23

O       0.149171    1.450577    0.004591
C       0.079407    0.027043   -0.009421
C       0.728815   -0.611414    1.238680
C      -0.444404   -0.803843    2.209566
C      -1.570097   -1.323222    1.295084
C      -1.578376   -2.884702    1.185833
C      -2.735972   -2.925923    2.217277
C      -2.976171   -1.415579    1.952945
C      -1.385762   -0.502020    0.002358
H      -0.311153    1.762840    0.790931
H       0.607421   -0.253333   -0.924281
H       1.150508   -1.589283    0.976500
H       1.542914    0.008662    1.622535
H      -0.218454   -1.475909    3.043153
H      -0.739750    0.159559    2.650736
H      -1.902599   -3.218970    0.195400
H      -0.652931   -3.409982    1.440817
H      -3.563631   -3.608640    2.012559
H      -2.379412   -3.115665    3.233228
H      -3.160923   -0.770044    2.817268
H      -3.775319   -1.251710    1.223065
H      -2.060111    0.362626   -0.009203
H      -1.622253   -1.091409   -0.888992
