20

C      -0.371755    0.952208    1.302850
C       0.601703    1.246019    0.192367
O       1.858556    0.622846    0.460282
C       1.243444   -0.693089    0.447402
C      -0.147487   -0.096081    0.243842
N      -1.162104   -0.745507   -0.484004
C      -1.026869   -1.003719   -1.935332
C      -2.562334   -0.855220   -2.060221
C      -2.505440   -0.167157   -0.673703
H      -0.011945    0.812973    2.320676
H      -1.320152    1.476210    1.222753
H       0.590756    2.122669   -0.444585
H       1.598500   -1.272380   -0.413259
H       1.423628   -1.254392    1.372091
H      -0.480252   -0.205841   -2.462083
H      -0.581942   -1.969911   -2.192769
H      -2.937837   -0.260214   -2.892511
H      -3.081743   -1.814451   -2.032726
H      -3.241962   -0.456838    0.082567
H      -2.506229    0.930914   -0.764869
