16

C      -0.011084    1.473511    0.104158
C       1.256640    0.709920   -0.095022
O       1.703424    0.146874    1.145837
C       0.517901   -0.676567    1.212786
C       0.710439   -2.199968    1.315990
O      -0.151235   -2.259525    2.471683
C      -0.221026   -0.819330    2.552547
C      -0.052415   -0.037271   -0.044312
H      -0.206073    1.945025    1.063452
H      -0.375607    2.017944   -0.761652
H       1.990217    0.867207   -0.875987
H       0.333851   -2.807393    0.484370
H       1.745331   -2.484024    1.545316
H       0.347782   -0.421338    3.402617
H      -1.252743   -0.451059    2.591669
H      -0.613581   -0.548904   -0.814256
