19

O      -0.637971    0.779486    0.821104
C       0.120995    0.971460   -0.093126
C       1.308816    1.904170   -0.056868
C       1.279542    2.912030   -1.216358
C       2.545075    3.749513   -1.276156
O       3.685693    2.921483   -1.463954
C       4.559354    3.571491   -2.384652
C       3.852076    4.905239   -2.683924
O       2.495566    4.620994   -2.378642
H      -0.013635    0.444987   -1.068196
H       1.333857    2.400824    0.917550
H       2.216106    1.292795   -0.155367
H       1.181601    2.393198   -2.176447
H       0.424601    3.589326   -1.115942
H       2.678736    4.330288   -0.343083
H       5.548498    3.711719   -1.934722
H       4.664828    2.950285   -3.282018
H       4.236284    5.712476   -2.042459
H       3.916463    5.218194   -3.727745
