19

C      -0.124961    1.423999   -0.173434
N      -0.083655    0.087523    0.415604
C      -1.177320   -0.743346    0.236302
C      -1.284725   -2.094571    0.052149
C      -0.191455   -3.099461   -0.131469
C      -2.705138   -2.357338    0.042391
N      -3.265597   -3.621374   -0.205981
C      -3.333312   -1.163852    0.205783
O      -2.389749   -0.156131    0.320681
H       0.788886    1.955622    0.102309
H      -0.216833    1.420399   -1.270319
H      -0.975155    1.972027    0.236567
H       0.779836   -0.401704    0.227052
H       0.056074   -3.644199    0.790215
H      -0.473222   -3.846137   -0.882682
H       0.735604   -2.629271   -0.479863
H      -2.817649   -4.353618    0.332037
H      -4.260957   -3.646672   -0.023982
H      -4.361644   -0.849189    0.227657
