15

O       0.134566    1.372171   -0.073420
C      -0.006966   -0.013076    0.005177
C      -0.448741   -0.732462    1.255462
C      -1.169442    0.123046    2.279621
O      -2.093546    0.922984    1.530128
C      -2.528606    0.155267    0.400110
C      -1.344250   -0.711232    0.017111
H      -0.579800    1.762374    0.449857
H       0.777584   -0.493415   -0.570403
H       0.059659   -1.628969    1.591512
H      -1.697452   -0.507269    3.010959
H      -0.520658    0.817328    2.823408
H      -3.398730   -0.466938    0.658356
H      -2.830309    0.872082   -0.370478
H      -1.518595   -1.591552   -0.590971
