17

C       0.001617    1.388779   -0.185612
C       0.164231   -0.085504    0.091332
N       1.512303   -0.635773    0.152456
C       0.698087   -0.650383    1.387219
C       1.227594    0.183011    2.531093
O       2.426536   -0.377115    3.038950
C       0.140941   -1.987509    1.759466
O       0.064041   -2.912360    0.984589
H       0.828924    1.971109    0.223794
H      -0.018086    1.556891   -1.267710
H      -0.938697    1.766021    0.229154
H      -0.585943   -0.721253   -0.377570
H       1.503105   -1.585921   -0.221771
H       1.368452    1.225261    2.219443
H       0.512070    0.180991    3.361788
H       3.028380   -0.444681    2.287638
H      -0.207868   -2.083184    2.808942
