20

C       0.235291    1.455181   -0.055776
N      -0.115774    0.047129    0.038198
C      -0.313767   -0.512291    1.270507
O      -0.301496    0.095060    2.323581
C      -0.054648   -0.760736   -1.179669
C       1.239207   -1.628684   -1.309285
C       0.713347   -3.082633   -1.320340
O      -0.605203   -3.027315   -0.788643
C      -1.167292   -1.826951   -1.289596
H       1.267928    1.589309   -0.402882
H      -0.433564    1.975770   -0.750692
H       0.135882    1.888437    0.939158
H      -0.494210   -1.599556    1.209521
H      -0.135712   -0.055328   -2.009108
H       1.802464   -1.396566   -2.215947
H       1.891057   -1.441549   -0.453498
H       0.688707   -3.479224   -2.347641
H       1.295746   -3.767362   -0.700165
H      -2.059984   -1.586495   -0.709565
H      -1.452992   -1.950381   -2.347372
