16

C      -0.064431    1.412397   -0.019273
N       0.177479   -0.017670   -0.059364
C       0.700704   -0.607558    0.944393
C       0.942615   -2.040302    0.902932
N       1.466677   -2.696041    1.881443
N       1.783170   -1.950031    2.970552
C       2.376638   -2.651272    4.095845
N       1.597736   -0.627690    3.098094
N       1.085218    0.041991    2.153475
H       0.466090    1.880285   -0.857599
H      -1.132575    1.591235   -0.193110
H       0.234160    1.902636    0.912192
H       0.674786   -2.600399    0.012090
H       3.312459   -3.126707    3.790001
H       2.567187   -1.915533    4.875485
H       1.690708   -3.419511    4.462787
