14

C      -0.224418    1.291177   -0.028994
O      -0.059946   -0.113957   -0.045920
C       0.575821   -0.634887    1.044479
C       0.814675   -1.989155    1.179544
O       0.528007   -3.041283    0.382934
N       1.452686   -2.150901    2.358852
N       1.651225   -0.982563    3.015050
C       1.117138   -0.059013    2.214379
H       0.744959    1.806448    0.006715
H      -0.740800    1.558422   -0.952520
H      -0.828481    1.612364    0.830329
H       0.076899   -2.695161   -0.396346
H       1.770021   -3.015824    2.761369
H       1.141184    0.979686    2.506453
