16

N      -0.040936    1.374396   -0.124685
C      -0.085303   -0.027458   -0.127157
C      -1.109812   -0.933127   -0.058497
C      -2.578959   -0.652648   -0.026614
O      -2.920866    0.539568   -0.743003
N      -0.599868   -2.233731    0.025229
C       0.689814   -2.087307    0.003621
O       1.624675   -3.055837    0.041064
N       1.081973   -0.785404   -0.089780
H       0.453808    1.748115   -0.930472
H      -0.994754    1.721811   -0.156033
H      -3.122387   -1.527165   -0.410977
H      -2.942157   -0.475180    0.993357
H      -2.645905    0.400072   -1.655957
H       1.141502   -3.889680    0.097687
H       2.025611   -0.439336   -0.053850
