14

N      -0.081609    1.495074    0.031487
C      -0.076928    0.063443    0.000172
C      -1.328692   -0.768829    0.067301
C      -2.415228   -0.149992   -0.801541
O      -1.506226   -0.035740   -1.937846
C      -0.490819   -0.747494   -1.220723
C       0.280790   -1.739140   -1.890403
N       0.939918   -2.537537   -2.409234
H       0.855119    1.841804   -0.152374
H      -0.667443    1.846863   -0.721821
H       0.745419   -0.381045    0.553116
H      -1.468625   -1.572880    0.776866
H      -3.230158   -0.839458   -1.040788
H      -2.819547    0.819332   -0.492511
