23

C       0.120210    1.624072    0.025550
C      -0.007929    0.094005   -0.009760
C       0.585708   -0.471633   -1.315557
C       0.233554   -1.932143   -1.604405
O       0.811484   -2.869816   -0.718376
C       0.236286   -2.905192    0.575652
C       0.711579   -1.814884    1.524870
C       1.310821   -2.296836    2.819932
C       0.598362   -0.515698    1.239353
H       1.173331    1.927835    0.005369
H      -0.377736    2.083277   -0.834044
H      -0.327404    2.036906    0.935487
H      -1.084128   -0.146196   -0.018072
H       0.213041    0.124575   -2.159683
H       1.676680   -0.362418   -1.301381
H      -0.864606   -2.052413   -1.613250
H       0.600214   -2.206883   -2.599270
H      -0.865261   -2.876956    0.495552
H       0.502379   -3.885158    0.984979
H       0.603960   -2.928469    3.374643
H       2.199487   -2.914921    2.636899
H       1.598972   -1.465213    3.468279
H       0.969313    0.198367    1.973890
