21

C      -0.066971    1.515246   -0.043093
C      -0.117134    0.026977    0.257876
O      -1.303479   -0.505575   -0.303122
C      -1.413031   -1.893288   -0.165613
C      -2.025022   -2.496100    1.148525
C      -3.384222   -1.886421    0.698116
C      -2.771983   -2.500536   -0.599147
C      -2.414516   -3.728368    0.270914
O      -1.420821   -4.580181   -0.244276
H       0.841189    1.959263    0.375609
H      -0.073410    1.687619   -1.123100
H      -0.933214    2.024229    0.389301
H       0.762206   -0.484265   -0.168139
H      -0.095477   -0.148175    1.345737
H      -0.516511   -2.396415   -0.540753
H      -1.599452   -2.506157    2.153494
H      -4.288841   -2.363793    1.085394
H      -3.450755   -0.801375    0.719468
H      -3.199690   -2.507642   -1.601848
H      -3.279542   -4.294191    0.639746
H      -1.166697   -5.196447    0.449384
