22

O       0.126131    1.234110   -0.623174
C       0.047459    0.084381    0.203291
C      -1.359851   -0.482374    0.211191
C      -2.395995    0.365031    0.932488
C      -3.772788   -0.304179    1.043253
C      -3.634334   -1.726833    1.596384
C      -2.803233   -2.631861    0.669730
C      -1.567578   -1.953331    0.086092
N      -1.698500   -1.075787   -1.101092
H      -0.190163    0.946114   -1.488667
H       0.752331   -0.692622   -0.128882
H       0.345005    0.403877    1.208175
H      -2.020995    0.565116    1.945538
H      -2.464614    1.339578    0.435851
H      -4.415581    0.297992    1.693786
H      -4.275401   -0.327720    0.065918
H      -3.145363   -1.669636    2.577798
H      -4.618693   -2.176600    1.764581
H      -2.490725   -3.526881    1.218142
H      -3.428218   -2.994446   -0.157882
H      -0.682506   -2.584611    0.032922
H      -2.685879   -0.935824   -1.304512
