15

C      -0.165311    1.506034   -0.031863
C       0.031136    0.028497    0.009908
C       0.046508   -1.106490   -0.945891
O       1.199679   -1.748525   -0.400424
C       0.948823   -0.966132    0.805877
C      -0.373443   -1.564165    1.366322
O      -0.727991   -1.948198    2.443881
C      -1.065934   -1.115820    0.114778
O      -2.395301   -0.960765   -0.157993
H       0.713488    2.013637   -0.442428
H      -1.028964    1.752162   -0.656971
H      -0.355037    1.905862    0.969427
H      -0.160791   -1.169555   -2.008202
H       1.822304   -0.753367    1.415576
H      -2.698848   -1.701934   -0.694587
