15

O      -0.182565    1.373600   -0.056070
N       0.011946   -0.019246    0.048211
C      -1.089074   -0.637275   -0.040310
C      -2.569269   -0.261763   -0.077099
C      -2.883662   -1.759036    0.115063
C      -2.296989   -2.543550   -1.025167
C      -1.382420   -2.094559    0.102904
O      -0.705968   -2.984141    0.905825
H       0.711608    1.710590    0.063631
H      -2.834389    0.367052    0.777401
H      -2.944502    0.203279   -0.993430
H      -3.646548   -2.161770    0.767318
H      -2.497112   -3.610164   -0.997052
H      -2.228999   -2.114582   -2.021897
H       0.057165   -3.314249    0.418430
