19

O       0.331271    1.401494   -1.275222
C       0.186339    1.555376   -0.079118
N       1.113473    1.241281    0.859596
C       2.419003    0.689326    0.515358
C       3.398843    1.743586    0.007490
C       3.881309    2.872379    0.995229
C       5.317620    2.387107    0.780865
N       5.343333    0.972277    1.226976
C       4.865718    1.309402   -0.139473
H      -0.739652    1.967517    0.370929
H       0.906476    1.446068    1.823301
H       2.831857    0.202668    1.401498
H       2.267387   -0.070396   -0.258298
H       3.016723    2.178777   -0.918037
H       3.693556    3.874116    0.604248
H       3.523521    2.809689    2.027062
H       6.225763    2.976956    0.767130
H       6.303889    0.643985    1.130903
H       5.346771    0.884496   -1.012098
