21

C      -0.070585    1.475058   -0.016602
C       0.026646   -0.040347   -0.004125
O      -1.170464   -0.641563   -0.496144
C      -1.909295   -1.126236    0.622228
C      -0.870966   -1.638102    1.646725
C       0.337855   -0.732031    1.361409
C       1.632068   -1.299015    0.744226
C       1.353777   -2.103599   -0.494271
C       1.333379   -0.609331   -0.592822
H       0.843825    1.927744    0.380308
H      -0.216966    1.837079   -1.039570
H      -0.915400    1.816937    0.590373
H      -2.519476   -0.320859    1.062211
H      -2.589901   -1.901893    0.259189
H      -1.238667   -1.557475    2.673077
H      -0.632867   -2.688799    1.459930
H       0.537565   -0.019972    2.164773
H       2.578767   -1.369954    1.265759
H       2.225018   -2.580130   -0.932144
H       0.432361   -2.665023   -0.613681
H       2.000686   -0.057238   -1.243829
