17

C       0.024388    1.341090   -0.120708
N      -0.049520   -0.092151    0.131296
C      -1.279155   -0.681027    0.051253
N      -2.446587   -0.135729    0.001396
N      -3.373164   -1.211193    0.005246
C      -2.660987   -2.284931    0.056574
N      -3.061196   -3.587829    0.142912
C      -4.468580   -3.873926   -0.103164
O      -1.311248   -2.050487    0.083933
H       1.043226    1.678809    0.079152
H      -0.255408    1.611748   -1.147565
H      -0.659175    1.853945    0.558727
H       0.694546   -0.647863   -0.264282
H      -2.402850   -4.243016   -0.252359
H      -5.074590   -3.271078    0.575980
H      -4.781154   -3.641282   -1.129883
H      -4.651180   -4.930718    0.101470
