15

O      -0.016788   -0.038300   -0.134486
C      -0.020393    1.169432   -0.040639
N      -1.162904    1.920136   -0.058112
C      -1.277900    3.366348    0.012329
C      -0.117057    3.994973    0.752747
N       0.311962    3.319363    1.966050
C       1.202482    3.293039    0.774809
C       1.295158    1.973301    0.084951
O       2.321512    1.548804   -0.381233
H      -2.009775    1.378351   -0.155815
H      -1.337855    3.814093   -0.990992
H      -2.212138    3.611999    0.530547
H      -0.095865    5.081468    0.716527
H       0.681777    3.983851    2.640360
H       2.121256    3.871189    0.786439
