18

C      -0.038218    1.671145    0.163315
C      -0.024743    0.159859    0.026581
C       1.183679   -0.526675   -0.677761
O       2.026240   -0.178258    0.486292
C       0.765879   -0.688298    1.067383
C       0.868170   -1.866528    0.052690
N      -0.252624   -2.693315   -0.292187
C      -0.164622   -4.053312   -0.397244
O       0.836539   -4.709360   -0.218718
H       0.952914    2.039002    0.434718
H      -0.341632    2.143334   -0.777110
H      -0.751176    1.984949    0.933147
H      -1.014988   -0.223886   -0.246035
H       1.600937   -0.356988   -1.671127
H       0.684966   -0.711320    2.154856
H       1.738808   -2.500084    0.202446
H      -1.151373   -2.274360   -0.468445
H      -1.140460   -4.500826   -0.672490
