17

C       1.385330   -0.169235    0.341892
C       2.828957    0.081695    0.050639
C       4.017769   -0.387663    0.823870
C       5.114868    0.538708    0.286020
C       4.480939    1.927013    0.161308
C       3.345178    1.394341   -0.764968
N       4.053802    0.803708   -2.012490
C       4.525915    0.019753   -1.124401
N       3.700392   -1.033269   -0.494716
H       0.984748    0.628109    0.979652
H       1.244991   -1.124947    0.853589
H       0.804636   -0.188588   -0.585679
H       4.015780   -0.954262    1.746886
H       6.148412    0.388985    0.580719
H       5.107631    2.648216   -0.365079
H       4.128573    2.339824    1.110276
H       2.564692    2.056581   -1.130863
