14

C      -0.042269    1.576897   -0.068243
C      -0.004425    0.047931   -0.031945
C      -1.304051   -0.542166    0.259132
N      -2.334754   -1.021661    0.471359
C       0.720896   -0.685060   -1.196932
O       2.044845   -0.190299   -1.204811
C       1.746881   -1.294509   -0.317559
C       1.105221   -0.639641    0.896520
O       1.257811   -0.682998    2.073201
H       0.935011    1.956150   -0.372116
H      -0.801555    1.933500   -0.769427
H      -0.280279    1.966538    0.924734
H       0.291856   -1.070766   -2.112955
H       2.341510   -2.194175   -0.412718
