19

O      -0.705001    0.999186    0.983560
C      -0.131228    1.961771    0.546848
C       1.261154    1.940489   -0.059259
C       1.356483    2.748144   -1.347593
C       0.580801    2.167811   -2.523495
C       1.165023    0.858814   -3.025235
O       0.521557   -0.117983   -3.305097
C       1.447367    4.254471   -1.227820
C       2.657982    3.460840   -1.647217
H      -0.600375    2.972920    0.573719
H       1.936905    2.378093    0.689075
H       1.559506    0.896204   -0.199296
H      -0.475555    2.004381   -2.285671
H       0.623102    2.874211   -3.364537
H       2.274629    0.868006   -3.134498
H       0.943109    4.857768   -1.974738
H       1.444133    4.689926   -0.234304
H       3.473596    3.353791   -0.940502
H       2.977525    3.529369   -2.681577
