17

C       0.122142    1.423510    0.000318
C      -0.099738   -0.065414    0.049362
N      -0.629005   -0.765697    0.966976
O       0.357818   -0.644542   -1.083791
C       0.256800   -2.060980   -1.145588
C      -1.128217   -2.660184   -1.441796
O      -0.631152   -3.279813   -2.651310
C       0.642958   -2.616555   -2.522488
H       1.189426    1.641852   -0.102759
H      -0.380288    1.849738   -0.873258
H      -0.257193    1.905467    0.902520
H      -0.914308   -0.180157    1.748340
H       0.763406   -2.503081   -0.286557
H      -1.508083   -3.391665   -0.722669
H      -1.899558   -1.907963   -1.646011
H       0.787900   -1.833462   -3.277650
H       1.482507   -3.319682   -2.555883
