21

O      -0.060138    1.420793   -0.064783
C       0.025451    0.004977    0.035940
C      -1.390139   -0.554289    0.013592
C      -2.176500   -0.210828   -1.278706
C      -3.230319   -1.330009   -1.421872
C      -2.593891   -2.549004   -0.766282
O      -3.435976   -3.560374   -0.296879
C      -1.174361   -2.888017   -1.145969
C      -1.468716   -2.072457    0.107775
H       0.832857    1.776735   -0.075718
H       0.601454   -0.420293   -0.802274
H       0.531552   -0.296787    0.967257
H      -1.923814   -0.132715    0.875979
H      -2.617590    0.786342   -1.238586
H      -1.494863   -0.214749   -2.136769
H      -4.138925   -1.088892   -0.857675
H      -3.526666   -1.498430   -2.464080
H      -3.723770   -4.081259   -1.054403
H      -0.876037   -3.916082   -0.972296
H      -0.709765   -2.421751   -2.008953
H      -1.290474   -2.555563    1.062122
