21

C      -0.243827    1.389631    0.437996
C       0.204653   -0.040218    0.154226
C       0.595000   -0.531951   -1.251511
C       1.941556   -0.081276   -1.751581
C       2.619552    1.277986   -1.616075
O       3.976687    1.161887   -1.232639
C       1.893892   -1.146458   -0.686052
C       1.579474   -0.591694    0.694137
O       2.558759    0.328707    1.160390
H       0.535152    2.128614    0.244744
H      -1.109535    1.649105   -0.180785
H      -0.550334    1.496143    1.485729
H      -0.571919   -0.717317    0.528270
H      -0.112615   -1.004305   -1.923956
H       2.165445   -0.548035   -2.710120
H       2.615952    1.771264   -2.594637
H       2.074526    1.928205   -0.926175
H       3.950265    0.843751   -0.320462
H       2.312744   -2.129832   -0.860416
H       1.430134   -1.381725    1.439831
H       2.286443    0.670879    2.017717
