19

C      -0.269507    1.461289   -0.549269
O      -0.052860    0.173898   -0.010203
C      -1.211972   -0.592973    0.055275
C      -1.698193   -1.419191   -1.187598
C      -0.422588   -2.295046   -1.030203
C      -1.032630   -2.091873    0.388476
N      -2.442938   -2.244741   -0.156168
C      -2.902578   -3.576754   -0.529904
H       0.681333    1.996774   -0.501241
H      -0.601164    1.416772   -1.597033
H      -1.022653    2.018645    0.027966
H      -2.022473   -0.094375    0.599896
H      -2.187868   -1.069439   -2.098597
H      -0.452298   -3.300295   -1.448476
H       0.535401   -1.811411   -1.222922
H      -0.731261   -2.533970    1.339831
H      -3.182735   -4.113287    0.382827
H      -3.805998   -3.471291   -1.139888
H      -2.192645   -4.207447   -1.085959
