21

C      -0.091566    1.598489    0.265326
C       1.493518    1.688635   -0.089161
C       2.002150    2.358312   -1.420877
C       1.845572    1.260922   -2.566821
C       0.668591    0.527436   -1.926906
C       0.074830   -0.818873   -1.441029
C       1.502300   -1.230141   -0.905752
C       1.274639    0.245290   -0.505491
C      -0.121361    0.003822   -0.033527
H      -0.254955    1.737710    1.337960
H      -0.752289    2.281225   -0.272458
H       2.094631    1.964325    0.781568
H       1.415553    3.250099   -1.668054
H       3.042959    2.682458   -1.320185
H       1.642528    1.714377   -3.540774
H       2.758812    0.663897   -2.650835
H      -0.136592    1.262474   -1.935359
H      -0.627858   -1.480932   -1.958343
H       1.534648   -1.944355   -0.078750
H       2.239187   -1.477572   -1.674971
H      -0.302730   -0.610441    0.853014
