19

O       0.218716    1.240743   -0.523315
C      -0.040158    0.016553    0.133879
C      -1.521827   -0.322600    0.130765
O      -1.920069   -0.423089   -1.231911
C      -3.258869   -0.766229   -1.408234
C      -4.397698    0.308259   -1.387659
C      -3.837875    0.913683   -2.695375
C      -3.853671   -0.628723   -2.826757
O      -5.191319   -0.646237   -2.191967
H      -0.181174    1.163325   -1.396786
H       0.517363   -0.815007   -0.325505
H       0.308020    0.125501    1.166128
H      -1.704768   -1.272441    0.657192
H      -2.092715    0.470537    0.635736
H      -3.529773   -1.696230   -0.894213
H      -4.898414    0.793323   -0.549911
H      -4.571029    1.434956   -3.311507
H      -2.868617    1.411792   -2.653688
H      -3.701331   -1.259070   -3.702627
