21

C      -0.138577    1.386984   -0.344473
C       0.073346   -0.089202   -0.010849
C       1.174413   -0.733760   -0.930247
C       2.200674   -0.517497    0.215250
C       1.022867   -0.299906    1.201962
N      -1.247107   -0.690432    0.148912
C      -1.920625   -1.234361   -1.022076
C      -1.429416   -2.129882    0.063879
H       0.815614    1.917826   -0.418270
H      -0.658893    1.494393   -1.302635
H      -0.746578    1.864309    0.429454
H       1.006814   -1.795629   -1.128735
H       1.368108   -0.234474   -1.883344
H       2.877624   -1.346711    0.431236
H       2.801259    0.384197    0.072340
H       1.097327    0.521631    1.919169
H       0.768507   -1.214925    1.743895
H      -2.977987   -1.003100   -1.120316
H      -1.372130   -1.263428   -1.962676
H      -0.577200   -2.766588   -0.164752
H      -2.122910   -2.553536    0.785560
