20

C      -0.049041    1.549939    0.083027
C      -0.077592    0.017395    0.031835
C      -1.465686   -0.536344    0.001652
O      -2.388442   -0.255457    1.106808
C      -3.181779   -1.075337    0.203398
C      -2.575156   -0.471726   -1.096667
N      -2.140429   -1.780239   -1.685254
C      -1.985881   -2.005351   -0.205220
C      -1.503906   -3.277652    0.418186
H       0.978994    1.918027    0.145137
H      -0.508411    1.982025   -0.811736
H      -0.599400    1.917452    0.953343
H       0.442613   -0.352517   -0.859779
H       0.444280   -0.398208    0.902850
H      -4.213406   -1.308179    0.473958
H      -2.911458    0.379143   -1.689609
H      -2.952949   -2.294620   -2.036365
H      -0.524380   -3.559336    0.019295
H      -1.417675   -3.147191    1.501675
H      -2.198305   -4.103365    0.228150
