19

C       0.148106    1.534701    0.031909
C      -0.009194    0.043932   -0.059346
C       0.317622   -0.815388   -1.307668
C      -0.451275   -1.888488   -0.480412
C       0.493916   -2.010334    0.718353
O       0.738716   -0.612993    0.988546
C      -1.388940   -0.706158   -0.020301
C      -2.157191   -0.767570    1.266458
O      -3.360426   -0.682619    1.332099
H       1.200831    1.811768   -0.080095
H      -0.428917    2.030241   -0.753359
H      -0.198219    1.901736    1.002806
H      -0.218900   -0.498946   -2.203167
H       1.374670   -0.993212   -1.522355
H      -0.855576   -2.801031   -0.914875
H       0.054923   -2.495104    1.596762
H       1.432036   -2.518973    0.467399
H      -2.057686   -0.402059   -0.827311
H      -1.543760   -0.879183    2.185314
