18

C      -0.022651    1.555982   -0.015409
C      -0.040658    0.028716    0.062906
N      -1.383191   -0.522223   -0.022569
N      -2.066194   -0.896592    1.092524
N      -3.237048   -1.312516    0.707660
C      -3.349590   -1.216939   -0.649049
C      -4.576937   -1.623425   -1.397012
C      -2.155576   -0.706012   -1.113650
O      -1.671701   -0.391723   -2.336486
H       1.004611    1.921503    0.074551
H      -0.426753    1.902382   -0.970545
H      -0.617097    1.988459    0.793773
H       0.555742   -0.408304   -0.743623
H       0.361798   -0.321652    1.015576
H      -5.011682   -0.795312   -1.970398
H      -4.389147   -2.448380   -2.095584
H      -5.328913   -1.961603   -0.680789
H      -2.331635   -0.623431   -2.998090
