19

C      -0.297289    1.511529   -0.114531
C       0.010894    0.020242   -0.071939
C       1.336391   -0.442874   -0.719903
O       1.839374   -0.937095    0.540974
C       0.614962   -0.601579    1.218698
C       0.845994    0.303395    2.439341
O      -0.409287    0.718292    2.977786
C       1.676583   -0.368994    3.437732
C       2.305826   -0.959275    4.274720
H       0.578872    2.115380    0.144096
H      -0.607580    1.804293   -1.123138
H      -1.099198    1.768327    0.582064
H      -0.856342   -0.544148   -0.423214
H       1.251767   -1.242607   -1.465749
H       1.969864    0.356375   -1.125512
H       0.088778   -1.504503    1.562678
H       1.346445    1.220710    2.112484
H      -0.745688   -0.006065    3.517008
H       2.882083   -1.466957    5.008459
