19

C      -0.586028    1.405788    0.439898
N      -0.126252    0.048216    0.199893
C       0.258361   -0.343065   -1.149327
C       1.551447    0.268333   -1.616661
C       1.579170   -0.911642   -0.663915
C       1.174917   -0.461592    0.743561
C       2.058454    0.507720    1.534183
N       3.365635    0.547888    1.147907
O       1.626888    1.140454    2.479534
H       0.082832    2.191822    0.049986
H      -1.563186    1.525785   -0.040784
H      -0.695396    1.564927    1.513570
H      -0.470002   -0.769072   -1.831185
H       1.832071    0.033264   -2.638774
H       1.850369    1.258518   -1.284172
H       2.035174   -1.860920   -0.912185
H       0.981699   -1.305852    1.417826
H       3.656148    0.160525    0.266775
H       3.976592    1.195734    1.619507
