18

C      -0.722118    1.391235    0.593874
N      -0.208431    0.026259    0.290862
H      -0.879281   -0.662519    0.621550
C       0.176331   -0.333896   -1.105589
C       1.451238    0.340886   -1.522758
C       1.512302   -0.894925   -0.671096
C       1.244157   -0.492083    0.783627
C       2.267883    0.520707    1.396572
O       2.035187    1.734909    1.222360
O       3.207339   -0.099334    1.898223
H       0.137678    2.063179    0.602796
H      -1.475884    1.648984   -0.154178
H      -1.171057    1.375254    1.588799
H      -0.595821   -0.686573   -1.777632
H       1.677542    0.200474   -2.574360
H       1.746913    1.291148   -1.090432
H       1.989226   -1.815873   -0.971798
H       1.050812   -1.326533    1.455577
