23

C       0.074015    1.464853   -0.127869
C       0.020763    0.017058    0.018853
C      -0.010558   -1.180096    0.143888
C      -0.083685   -2.629057    0.285411
C      -1.467952   -3.182477   -0.074218
O      -1.416430   -4.581751    0.086814
C      -2.665638   -5.257765   -0.016043
C      -3.161781   -5.330797   -1.463520
C      -2.454269   -6.641994    0.587566
H       0.810080    1.763432   -0.882685
H      -0.896426    1.870038   -0.435762
H       0.350381    1.951978    0.813949
H       0.659782   -3.116369   -0.357294
H       0.153684   -2.929586    1.313132
H      -2.231763   -2.740180    0.585486
H      -1.719651   -2.895853   -1.105907
H      -3.411487   -4.712429    0.587842
H      -4.108880   -5.877381   -1.514472
H      -3.330685   -4.336771   -1.887053
H      -2.428192   -5.850786   -2.088260
H      -2.097831   -6.558556    1.617529
H      -3.387436   -7.212968    0.583983
H      -1.707005   -7.196542    0.010926
