15

C      -0.032284   -1.256178   -0.135930
C      -0.003341   -0.058566   -0.041985
C       0.008682    1.397647    0.054674
C      -0.603220    1.941760    1.347204
C       0.199872    2.810143    1.960711
C       1.499326    2.935577    1.236276
N       2.244936    1.643502    1.212029
C       1.411036    2.028607    0.061849
H      -0.045016   -2.315252   -0.208262
H      -0.549889    1.799550   -0.804617
H      -1.572252    1.605604    1.694941
H      -0.022265    3.331616    2.883815
H       2.056404    3.866000    1.220293
H       3.217879    1.827493    0.972038
H       1.887642    2.250774   -0.886043
