23

C       0.315259    1.585920   -0.140438
C       0.165491    0.084235   -0.037843
C       1.378922   -0.794486    0.209739
C       0.324406   -0.615980    1.278317
O       0.608282    0.172494    2.389809
C       1.335154   -0.513728    3.394391
C       1.576610    0.445923    4.550334
C       2.350892   -0.198150    5.692670
O       2.521109    0.781383    6.705502
H       1.033647    1.956374    0.594063
H       0.658292    1.877469   -1.138916
H      -0.638617    2.090436    0.047881
H      -0.593500   -0.339865   -0.690349
H       1.462464   -1.747872   -0.300864
H       2.321878   -0.282547    0.374413
H      -0.328497   -1.464113    1.493286
H       0.766322   -1.395992    3.734581
H       2.288610   -0.884719    2.984994
H       2.130808    1.318728    4.188826
H       0.615481    0.810442    4.927873
H       1.798214   -1.072940    6.073796
H       3.324121   -0.565022    5.326210
H       3.008529    0.381115    7.431234
