18

C       0.070145    1.523205    0.158221
O       1.482108    1.429298   -0.232583
C       1.196169    0.125785   -0.850813
C       1.874475   -1.240218   -0.655620
C       0.708599   -1.883081    0.135038
C       0.370871   -0.926034    1.284456
C      -1.078892   -1.410319    1.194835
N      -0.726772   -1.282796   -0.291489
C       0.037111   -0.009937    0.074688
H      -0.055579    1.991785    1.137891
H      -0.516996    2.052228   -0.602669
H       0.917566    0.290159   -1.899151
H       2.121320   -1.732869   -1.598731
H       2.770598   -1.214260   -0.027627
H       0.684833   -2.964562    0.278790
H       0.986519   -0.695973    2.161181
H      -1.298665   -2.433663    1.513290
H      -1.878458   -0.729737    1.500001
