21

O      -0.133550    1.476101   -0.231722
C       0.022345    0.084443    0.025305
C      -1.359494   -0.545084   -0.053166
C      -2.068969   -0.544357   -1.435528
C      -1.143496   -1.501345   -2.262373
C      -0.723998   -2.573711   -1.211400
C      -1.454650   -2.087201    0.089657
C      -2.939186   -2.277285   -0.182168
C      -3.302217   -1.363212   -1.088254
H       0.734559    1.887539   -0.191744
H       0.719972   -0.368439   -0.693204
H       0.437460   -0.088713    1.032126
H      -1.992116   -0.051606    0.691005
H      -2.240044    0.428294   -1.894650
H      -1.672577   -1.929967   -3.116383
H      -0.276439   -0.961296   -2.654370
H      -1.037105   -3.583166   -1.487277
H       0.360843   -2.597091   -1.069993
H      -1.072305   -2.527403    1.012244
H      -3.536736   -3.088514    0.215428
H      -4.261942   -1.269937   -1.581862
