16

O       0.069778    0.206706   -0.979891
C       0.044150    1.201899   -0.318417
C      -1.066235    1.960251    0.430877
C      -0.067569    3.136957    0.661058
C       0.320839    3.428139    2.125253
C       1.500675    2.514906    2.362217
C       1.927241    1.912898    1.250521
C       1.097393    2.274886    0.046062
H      -1.947353    2.173538   -0.180653
H      -1.396550    1.455881    1.345080
H      -0.331350    4.031120    0.096421
H       0.596634    4.479123    2.284039
H      -0.510994    3.225042    2.812693
H       1.949814    2.389454    3.341699
H       2.759831    1.221831    1.187223
H       1.680609    2.652832   -0.799843
