17

O       0.377891    2.521805   -1.024262
C       0.067509    1.765367   -0.132061
N       0.896520    0.878770    0.502955
C       2.264127    0.631948    0.296178
N       2.775633   -0.283735    1.014674
C       4.182775   -0.607347    0.810666
C       4.717535   -0.108374   -0.526193
O       4.384440    1.261074   -0.686276
C       2.991379    1.462243   -0.745354
H      -0.958460    1.706911    0.278903
H       0.496764    0.285875    1.219223
H       4.762324   -0.169853    1.634396
H       4.298889   -1.695186    0.889217
H       5.807729   -0.175271   -0.574629
H       4.297958   -0.705356   -1.353093
H       2.585037    1.227065   -1.742302
H       2.804720    2.524651   -0.579786
