18

O       0.103002    1.393588   -0.211961
C       0.022222    0.012433   -0.066095
C       0.350686   -0.658544    1.306952
C      -0.854339   -1.624711    1.091162
C      -1.953459   -1.629137    2.148062
O      -2.673663   -0.391235    1.960749
C      -2.370535    0.175186    0.762473
N      -2.800708    1.302105    0.368804
C      -1.380982   -0.665327   -0.006794
H      -0.779700    1.762430   -0.041365
H       0.619152   -0.453520   -0.858896
H       1.339017   -1.107600    1.419639
H       0.178884    0.035571    2.135177
H      -0.574058   -2.625774    0.764486
H      -2.653858   -2.462373    2.016320
H      -1.580872   -1.638740    3.176132
H      -3.426810    1.719059    1.059414
H      -1.810835   -1.038915   -0.937230
