19

C      -0.110130    1.615308   -0.012534
C       0.048611    0.091660   -0.005015
N       0.702999   -0.425527   -1.193150
C       0.076706   -0.662444   -2.407778
C       1.021733   -1.163590   -3.269385
O       0.762631   -1.528897   -4.561580
C       2.264596   -1.217113   -2.580836
C       2.030788   -0.749028   -1.299851
N       2.876301   -0.634286   -0.173848
H       0.864965    2.110904   -0.050001
H      -0.688885    1.945360   -0.880226
H      -0.627840    1.948272    0.892863
H       0.647627   -0.225291    0.852257
H      -0.933003   -0.387620    0.076207
H      -0.971600   -0.462869   -2.550377
H       1.582797   -1.837242   -4.956158
H       3.216335   -1.545849   -2.972582
H       3.267838    0.297959   -0.071681
H       3.650350   -1.283392   -0.244122
