17

C      -0.608595    1.358288   -0.560343
N      -0.954377   -0.047905   -0.473298
C      -0.922743   -0.730452    0.701839
O      -0.611436   -0.237181    1.770759
C      -1.287930   -2.221603    0.618490
C      -2.377417   -2.600092   -0.402782
O      -1.981947   -2.398959   -1.758329
C      -2.810976   -3.995204   -0.200986
N      -3.114306   -5.100428   -0.054511
H       0.297347    1.511019   -1.157936
H      -1.423495    1.935500   -1.009743
H      -0.428598    1.717863    0.453009
H      -1.198277   -0.557704   -1.310212
H      -0.379785   -2.797825    0.399764
H      -1.608625   -2.511545    1.621346
H      -3.248927   -1.951514   -0.264402
H      -1.293950   -3.041454   -1.971476
