16

C      -0.094388    1.456268   -0.023438
C      -0.012012    0.004338   -0.013374
C       0.068092   -1.201710   -0.005231
C       0.145458   -2.605351    0.004707
C       1.224082   -3.469969   -0.018844
C       0.733777   -4.804155    0.006825
C      -0.641607   -4.712624    0.045607
O      -1.631670   -5.636845    0.082085
N      -0.999642   -3.402789    0.044573
H       0.906131    1.902328    0.005522
H      -0.593774    1.829533   -0.925505
H      -0.647608    1.836847    0.843375
H       2.257850   -3.164262   -0.051237
H       1.311919   -5.715076   -0.001923
H      -1.230048   -6.510922    0.078077
H      -1.945506   -3.062949    0.068749
