17

C      -0.037551    1.512166    0.047236
C      -0.009895   -0.009871    0.005724
C       1.325519   -0.711614   -0.208045
C       0.681958   -0.748150    1.163578
O       1.202867    0.103881    2.148653
C       0.146539   -1.987638    1.661165
C      -0.253623   -3.024489    2.120043
C      -1.178503   -0.616476   -0.573975
C      -2.166353   -1.082966   -1.076246
H       0.851642    1.903147    0.542097
H      -0.085818    1.908881   -0.971236
H      -0.917730    1.864134    0.592214
H       1.335809   -1.621912   -0.794640
H       2.197281   -0.073115   -0.302014
H       1.909909   -0.372617    2.598413
H      -0.629111   -3.935278    2.516420
H      -3.037213   -1.507334   -1.510508
