19

C      -0.215823    0.979438   -1.845354
C      -0.034814   -0.188574   -0.899353
C       1.321207   -0.612769   -0.338135
C       2.619258    0.091307   -0.668673
C       0.272563   -0.044910    0.579130
C       0.416144    1.301458    1.253143
O      -0.291837   -1.022308    1.426793
H       0.458679    1.810657   -1.625658
H      -0.028203    0.674750   -2.881270
H      -1.239035    1.369600   -1.798909
H      -0.694738   -1.026862   -1.110053
H       1.426619   -1.688609   -0.226632
H       2.501236    1.172390   -0.776834
H       3.365483   -0.079049    0.115246
H       3.036771   -0.285898   -1.608853
H       0.901411    2.044264    0.616906
H      -0.568205    1.701033    1.529129
H       1.003835    1.200414    2.171277
H      -1.206663   -0.769277    1.595779
