19

O      -0.014425    1.417675   -0.067647
C       0.052342    0.008153   -0.004018
C      -1.344762   -0.600799    0.016632
O      -1.995450   -0.158222   -1.175649
C      -3.330628   -0.621492   -1.302459
C      -3.359508   -2.141974   -1.437490
C      -2.671227   -2.795469   -0.225374
C      -1.343594   -2.131534    0.110600
O      -0.366850   -2.749206    0.463991
H      -0.601087    1.622646   -0.805120
H       0.612249   -0.416828   -0.850388
H       0.581878   -0.260219    0.912208
H      -1.894738   -0.211140    0.894040
H      -3.928552   -0.297785   -0.433475
H      -3.738130   -0.135068   -2.193009
H      -4.391912   -2.496487   -1.530133
H      -2.833826   -2.420947   -2.357494
H      -3.310947   -2.670449    0.661177
H      -2.504675   -3.867179   -0.357178
