21

C      -0.219812    1.548288    0.008017
C       0.033753    0.039208   -0.002730
C       0.842976   -0.434468   -1.245624
C       1.945156   -1.384979   -0.763301
O       2.890112   -0.685114    0.021321
C       2.274877   -0.061042    1.156869
C       0.802355   -0.483620    1.232662
C       0.783713   -2.016545    1.182165
O       1.381370   -2.463630   -0.041513
H       0.715433    2.118235    0.009023
H      -0.782640    1.849608   -0.881732
H      -0.798887    1.849782    0.887816
H      -0.942275   -0.460891   -0.006643
H       0.205675   -0.947949   -1.970880
H       1.314067    0.411537   -1.757775
H       2.506653   -1.831364   -1.586047
H       2.815534   -0.384908    2.055693
H       2.385090    1.028611    1.077151
H       0.351318   -0.129318    2.165205
H       1.344507   -2.440959    2.026757
H      -0.243403   -2.402075    1.228500
