13

O       0.418276    1.384479   -0.123654
C       0.169186    0.030023    0.050226
C      -0.125920   -0.568767    1.451045
O      -1.216824   -1.360568    0.902358
C      -1.207677   -0.583152   -0.323851
C      -2.409784    0.340105   -0.227248
O      -2.356565    1.533168   -0.033158
H      -0.414065    1.852995    0.039253
H       0.978748   -0.517488   -0.439926
H       0.636368   -1.204161    1.910428
H      -0.482506    0.173242    2.176687
H      -1.274941   -1.216600   -1.216869
H      -3.386347   -0.187389   -0.263293
