17

N      -0.034791   -1.119828    0.050022
C      -0.019009    0.036020    0.051857
C       0.005472    1.483159    0.026351
C      -0.850264    2.228613   -1.036369
C      -0.101520    3.562200   -0.861553
C       1.317869    3.180886   -1.354415
C       1.361679    2.325942   -0.083843
C       0.430188    3.325290    0.645753
N      -0.275021    2.215230    1.296109
H      -0.765074    1.820962   -2.046500
H      -1.904485    2.242304   -0.746352
H      -0.597987    4.479033   -1.173066
H       1.411087    2.703628   -2.333861
H       2.029307    4.008118   -1.277870
H       2.249034    1.885960    0.363746
H       0.758948    4.175433    1.240010
H      -1.270776    2.357901    1.470805
