21

C       0.275861    1.306440   -0.297975
O      -0.184182    0.051376    0.161681
C       0.564442   -0.489126    1.222229
C       1.900153   -1.104843    0.861634
C       0.704676   -1.981836    1.193666
C       0.640275   -2.738749    2.519308
C      -0.294450   -2.059435    3.537382
C      -0.059362   -0.568612    3.605322
C       0.346945    0.142489    2.553424
H       1.333619    1.268626   -0.595954
H      -0.330164    1.565330   -1.169775
H       0.156176    2.098631    0.454651
H       2.204580   -1.045808   -0.178068
H       2.708838   -1.049704    1.583582
H       0.230163   -2.456009    0.341047
H       0.317983   -3.770319    2.343922
H       1.643483   -2.800105    2.957300
H      -1.344669   -2.245658    3.268656
H      -0.156501   -2.508974    4.526965
H      -0.239104   -0.073173    4.556357
H       0.507218    1.214076    2.639768
