15

C      -0.005430    1.555754    0.026746
C      -0.014308    0.053404    0.018889
C      -1.162924   -0.669957   -0.082307
O      -2.391087   -0.119635   -0.184223
C      -1.162447   -2.127183   -0.089182
O      -2.181094   -2.781313   -0.178975
O       0.050228   -2.750825    0.011055
C       1.198875   -2.034563    0.112216
C       1.211983   -0.690947    0.119721
H       0.593576    1.944748   -0.804765
H      -1.016131    1.955861   -0.057514
H       0.443917    1.936482    0.951229
H      -3.001858   -0.875607   -0.239861
H       2.064207   -2.678759    0.182796
H       2.158920   -0.171757    0.202780
