15

O       0.105432    1.353055   -0.083452
C       0.080977   -0.057315   -0.008835
C      -1.364025   -0.579260   -0.075731
N      -1.419504   -2.027813   -0.009922
N      -1.702625   -2.785304   -1.052905
N      -1.612073   -4.030354   -0.639892
C      -1.264928   -3.953922    0.663565
O      -1.075284   -5.016459    1.445581
N      -1.130245   -2.710915    1.104103
H      -0.156699    1.707005    0.772240
H       0.638907   -0.429260   -0.873677
H       0.568480   -0.440800    0.896873
H      -1.952392   -0.179962    0.755869
H      -1.831490   -0.288556   -1.017140
H      -1.232376   -5.800064    0.903509
