18

C       0.362005   -0.763940    1.602927
C       0.324381    0.233863    0.932532
C       0.192937    1.392280    0.091116
N       0.530289    2.724527    0.645571
C       1.324658    2.199549   -0.467207
C       2.795060    1.941167   -0.224899
C       3.295900    1.469685    1.155171
C       3.809306    0.236238    0.386155
O       3.258395    0.725764   -0.858928
H       0.409219   -1.639825    2.201487
H      -0.678740    1.344423   -0.559893
H      -0.144041    3.413893    0.324304
H       1.121991    2.600915   -1.460128
H       3.350072    2.808841   -0.611285
H       4.061873    2.105356    1.600986
H       2.515058    1.275290    1.887201
H       4.899962    0.130974    0.332544
H       3.365245   -0.723425    0.671768
