14

O      -0.084636    0.542667   -0.034881
C       0.545996    1.353523   -0.653278
C       1.995463    1.689222   -0.319761
O       2.478496    2.807949   -1.076383
C       1.965237    3.997920   -0.728870
O       1.150093    4.167023    0.137309
C       2.578791    5.141852   -1.535611
C       3.087678    4.776852   -2.852561
N       3.485302    4.510101   -3.903016
H       0.134465    1.895657   -1.532909
H       2.087356    1.872567    0.753417
H       2.635718    0.851047   -0.605830
H       1.821434    5.924950   -1.622782
H       3.396332    5.559570   -0.935018
