19

C      -0.436422    0.935052    0.070631
O       0.122797   -0.368007   -0.012765
C       0.891128   -0.595793   -1.182568
C       1.572425   -1.953615   -1.081089
C       0.544465   -2.918662   -1.709984
C      -0.411718   -3.561559   -0.714437
O      -0.209314   -2.098646   -2.640007
C      -0.050338   -0.777788   -2.390786
O      -0.616189    0.076045   -3.014291
H       0.352581    1.701669    0.057016
H      -1.133595    1.136384   -0.749963
H      -0.966513    0.984136    1.024115
H       1.579897    0.239820   -1.360664
H       2.495486   -1.947633   -1.667133
H       1.814495   -2.206915   -0.047678
H       1.031148   -3.685690   -2.318325
H      -0.871987   -2.796590   -0.083806
H      -1.196583   -4.111687   -1.240086
H       0.132092   -4.262174   -0.072603
