20

C       0.106523    1.588363   -0.046007
C       0.028411    0.058705   -0.010906
C      -1.412875   -0.478228    0.015301
C      -1.442105   -2.020716   -0.081448
C      -2.862414   -2.577883   -0.312508
C      -2.875450   -4.037399   -0.371906
N      -2.862719   -5.191980   -0.416869
C      -2.115086   -0.070948    1.298948
O      -3.255587    0.307102    1.377561
H       1.146328    1.926333   -0.072335
H      -0.399078    1.988478   -0.931159
H      -0.365813    2.039452    0.833504
H       0.540230   -0.357978   -0.885835
H       0.568414   -0.322672    0.866410
H      -1.987675   -0.056031   -0.818125
H      -0.793285   -2.336851   -0.904566
H      -1.021507   -2.461723    0.830407
H      -3.542814   -2.249824    0.480517
H      -3.271944   -2.186413   -1.250747
H      -1.486272   -0.190548    2.214624
