18

C       0.016639    1.556360    0.013965
C       0.017937    0.054935   -0.039392
C       0.535903   -0.916238   -1.154719
C       0.853315   -1.893295   -0.085505
C       0.753216   -0.833022    1.015761
O      -0.128257   -1.124036    2.079564
C      -1.437990   -1.239891    1.492141
C      -1.242127   -0.841873    0.033580
N      -0.500883   -1.905153   -0.748851
H       1.029576    1.960630   -0.089561
H      -0.598003    1.987254   -0.784017
H      -0.383857    1.906551    0.972116
H       0.896816   -0.794600   -2.166390
H       1.422192   -2.813363   -0.118409
H       1.700547   -0.464986    1.410944
H      -1.802289   -2.272165    1.572123
H      -2.129636   -0.579486    2.029586
H      -2.136944   -0.524522   -0.503312
