18

C      -0.214762    1.537858    0.001004
N      -0.051657    0.103988    0.105808
C      -1.211597   -0.737654    0.441017
C      -0.303319   -1.609789    1.366108
C       0.764914   -0.504054    1.189268
C       0.772970    0.191278    2.534790
C      -0.018506   -0.407421    3.434117
C      -0.699232   -1.589784    2.838272
O      -1.435870   -2.366401    3.400647
H       0.760089    2.009310   -0.165054
H      -0.843791    1.765914   -0.866199
H      -0.679702    2.006276    0.886737
H      -2.012841   -0.218503    0.989175
H      -1.652812   -1.250899   -0.419113
H      -0.088034   -2.608743    0.992081
H       1.776334   -0.773787    0.862970
H       1.361973    1.083850    2.720479
H      -0.178452   -0.109627    4.463330
