14

C       0.025923    1.461917    0.063721
C       1.517907    1.861950   -0.109374
N       2.141316    0.562448    0.062846
N       3.420439    0.131940    0.180992
N       3.356421   -1.169385    0.157325
C       2.059852   -1.587585   -0.006593
C       1.274752   -0.459301   -0.077306
N      -0.009172    0.026497   -0.320017
H      -0.276371    1.603933    1.109772
H      -0.636790    2.051572   -0.573100
H       1.725694    2.259085   -1.108935
H       1.855759    2.581693    0.637671
H       1.801701   -2.631368   -0.052995
H      -0.762609   -0.500563    0.099276
