23

C      -0.274022    1.475574   -0.036252
C      -0.082261   -0.030242   -0.019575
C      -0.784897   -0.805969    1.074241
C       0.717114   -0.627110    1.112985
C       1.655634   -1.798218    0.857491
C       2.768427   -1.502342   -0.129994
C       2.663753   -0.914699   -1.323798
C       1.442987   -0.392073   -2.041290
C       0.078617   -0.675053   -1.388610
H       0.569132    1.989251   -0.512074
H      -1.183477    1.751075   -0.584227
H      -0.365995    1.872486    0.979569
H      -1.393106   -0.255246    1.784686
H      -1.167755   -1.794599    0.838306
H       1.094866    0.087467    1.840344
H       2.097216   -2.113427    1.809554
H       1.080202   -2.667001    0.512786
H       3.761868   -1.825037    0.175688
H       3.585582   -0.787957   -1.891404
H       1.564922    0.690640   -2.193883
H       1.442875   -0.812087   -3.057507
H      -0.060635   -1.758546   -1.313991
H      -0.714961   -0.315440   -2.056750
