18

C      -0.016147    1.467347    0.012882
C       0.008274    0.015917    0.015852
C       0.029289   -1.194699    0.018240
C       0.052650   -2.553339    0.019756
C       0.065385   -3.766076    0.032944
C       0.095886   -5.203108    0.003730
C       1.225551   -5.828621   -0.793826
C      -0.479543   -5.924304    1.184724
N      -1.205490   -5.919876   -0.089128
H       0.992984    1.879041   -0.102365
H      -0.628806    1.853503   -0.809724
H      -0.429707    1.859190    0.949119
H       2.196914   -5.546406   -0.376971
H       1.131182   -6.917022   -0.774957
H       1.189429   -5.497225   -1.835626
H      -0.052108   -6.883476    1.465246
H      -0.855553   -5.327865    2.010383
H      -1.965160   -5.244471   -0.049458
