15

C       0.075906    1.343700    0.600405
C      -0.049212   -0.067196    0.078283
C      -1.340247   -0.589111   -0.382880
O      -0.339125   -0.178122   -1.316573
N       1.337048    1.950697    0.199482
C       1.857456    2.168229   -1.023278
N       3.031209    2.746108   -0.891574
N       3.223690    2.880445    0.448635
N       2.222879    2.410210    1.112725
H      -0.752997    1.953241    0.227951
H       0.063525    1.363453    1.692481
H       0.705247   -0.766330    0.438530
H      -1.529407   -1.659621   -0.341111
H      -2.225255    0.043692   -0.337129
H       1.367264    1.890241   -1.941470
