19

C       0.106188    1.425211   -0.246865
C      -0.109686   -0.073529   -0.025706
C      -1.585481   -0.487060    0.147696
C      -2.412912   -0.451449   -1.187572
C      -2.217977   -1.983942   -1.326475
C      -1.777092   -2.044568    0.159412
C      -2.189753    0.216044    1.274107
N      -2.678264    0.765890    2.167175
H       1.169943    1.643789   -0.377163
H      -0.417029    1.781031   -1.140430
H      -0.256187    2.005921    0.606517
H       0.294947   -0.640509   -0.872750
H       0.444915   -0.401700    0.861472
H      -3.454057   -0.174003   -1.013334
H      -2.008069    0.185600   -1.976713
H      -3.100921   -2.565114   -1.597016
H      -1.411916   -2.245139   -2.016118
H      -0.881955   -2.621692    0.402979
H      -2.585861   -2.350758    0.825496
