20

C       0.040018    1.360118    0.126891
N      -0.049028   -0.025473   -0.287361
C       1.149128   -0.822634   -0.089748
C      -1.263208   -0.666541   -0.091426
N      -1.333710   -2.000205   -0.038005
N      -2.657408   -2.273403    0.093921
C      -3.089332   -3.646241    0.186515
C      -3.406802   -1.152029    0.142792
C      -2.550935   -0.077032    0.030613
H       0.984141    1.779066   -0.232437
H      -0.770286    1.943664   -0.318275
H      -0.000658    1.495002    1.221643
H       1.343292   -1.051390    0.971459
H       1.046999   -1.769877   -0.620565
H       2.008890   -0.277931   -0.490804
H      -4.175878   -3.669055    0.289058
H      -2.801555   -4.199787   -0.712513
H      -2.635968   -4.134093    1.055101
H      -4.479514   -1.196755    0.252417
H      -2.820585    0.964918    0.034824
