14

O      -0.130108    1.485056    0.001164
C      -0.047113    0.122335   -0.063979
C      -1.169319   -0.878730   -0.102848
N      -0.469714   -1.628637   -1.146999
C       0.636216   -0.746319   -1.128654
O       1.670018   -0.735813   -1.726839
C      -0.340930   -0.788183    1.168740
C       0.512162   -1.847260    1.617287
C       1.226539   -2.744787    1.979815
H       0.719225    1.829406    0.301731
H      -2.237043   -0.711063   -0.146306
H      -0.336127   -2.632831   -1.087727
H      -0.818635   -0.199435    1.950180
H       1.864818   -3.529054    2.304520
