20

C       0.042487    1.489536    0.112455
C       0.015197   -0.023713   -0.009371
C       0.735079   -0.573552   -1.237591
C       0.757259   -2.104089   -1.170194
N       1.141057   -2.600360    0.145007
C       1.071108   -1.823221    1.144145
C       1.522969   -2.317492    2.500509
O       2.033426   -3.618056    2.429345
O       0.630712   -0.547572    1.191627
H       1.073297    1.856387    0.117898
H      -0.485175    1.944877   -0.730848
H      -0.442205    1.809131    1.038771
H      -1.025948   -0.377014   -0.012136
H       0.236880   -0.225165   -2.148082
H       1.759768   -0.182945   -1.252057
H      -0.228812   -2.514827   -1.426506
H       1.456798   -2.511624   -1.907917
H       2.276541   -1.614318    2.888108
H       0.663563   -2.261088    3.187903
H       1.921196   -3.874742    1.498525
