16

C      -0.028150    1.425489    0.033078
O      -0.004448    0.011033    0.005175
C       0.605840   -0.552962   -1.061619
C       0.704411   -1.934911   -1.217989
N       1.383990   -2.138401   -2.411446
C       1.701045   -0.949662   -2.984427
C       1.232679    0.067090   -2.172575
C       0.253265   -2.989790   -0.410873
C      -0.126418   -3.911667    0.268813
H       0.986812    1.844129    0.051267
H      -0.566601    1.835552   -0.831602
H      -0.550245    1.706750    0.948840
H       1.598926   -3.048797   -2.778369
H       2.232854   -0.904361   -3.921031
H       1.333933    1.122567   -2.363634
H      -0.467348   -4.710878    0.878618
