15

C      -0.001461   -1.222720    0.038192
C       0.023389   -0.024397   -0.036858
C       0.065657    1.431118   -0.117268
C       1.460311    1.988218   -0.042133
O       2.425760    1.722353   -1.099269
C       3.184925    2.557279   -0.180963
C       1.969022    3.449844    0.215883
O       2.138557    3.256263    1.646399
C       2.528701    1.962989    1.102663
H      -0.026369   -2.282632    0.097665
H      -0.400925    1.775214   -1.048822
H      -0.506162    1.874622    0.708347
H       4.217790    2.805801   -0.418588
H       1.623626    4.413788   -0.157141
H       2.841995    1.168140    1.777797
