20

C      -0.035570    1.591857    0.089926
C       0.143241    0.075380    0.095677
C       1.272556   -0.849301   -0.328964
N       2.714567   -0.577989    0.037072
C       2.843035    0.729186    0.703754
C       2.252269   -0.398517    1.461219
C       0.805786   -0.818473    1.116362
C       0.095786   -1.856881    1.930875
O      -0.351850   -1.357370    3.186537
H       0.394610    2.057731   -0.802828
H      -1.104390    1.829017    0.091526
H       0.399197    2.070779    0.969771
H      -0.768277   -0.420761   -0.242906
H       1.116108   -1.602933   -1.091836
H       3.881364    0.954330    0.935863
H       2.274973    1.580265    0.362310
H       2.786399   -0.881337    2.273843
H      -0.735039   -2.279860    1.343340
H       0.774322   -2.682055    2.176246
H      -0.911251   -0.594191    3.007505
