17

C       0.115970    1.477185    0.034664
O       0.991495    0.430034   -0.389319
C      -0.335435    0.081220    0.014174
C      -0.423817   -0.742650    1.269640
O      -1.794296   -0.919738    1.707662
C      -1.694734   -2.364511    1.686032
C      -0.278100   -2.260903    1.134188
C       0.479998   -3.071891    0.184967
O       0.823113   -3.008925    1.581980
H       0.371765    1.943862    0.984787
H      -0.210976    2.158119   -0.749167
H      -0.990923   -0.243002   -0.795006
H       0.214859   -0.315755    2.054351
H      -1.753726   -2.801826    2.690146
H      -2.453166   -2.820961    1.039581
H       0.079379   -4.026754   -0.152136
H       1.187165   -2.589608   -0.487315
