18

O       0.105491    1.195620    0.585025
C       0.047533    0.019208   -0.203389
C      -1.329396   -0.616653   -0.166251
C      -1.616312   -2.097303   -0.130518
C      -0.492127   -3.072367    0.221851
N      -0.092472   -2.660536    1.558424
C      -0.822463   -1.639703    2.110948
O      -0.625528   -1.128777    3.195539
C      -1.873554   -1.256849    1.100596
H      -0.080193    0.940833    1.497248
H       0.279372    0.330782   -1.227266
H       0.822929   -0.699163    0.097139
H      -2.079485   -0.036945   -0.697700
H      -2.430175   -2.478350   -0.734837
H      -0.866812   -4.103933    0.217521
H       0.348764   -3.022508   -0.481365
H       0.738039   -2.997939    2.018734
H      -2.851917   -0.982772    1.472194
