18

O       0.350631    0.536159   -0.991246
C       0.063042    1.170696    0.028448
O       0.620011    1.359253    1.127119
C      -1.311143    1.930204   -0.028081
C      -2.312262    1.753266    1.141480
N      -2.824264    3.125569    0.688020
H      -3.389635    3.727109    1.291358
C      -1.355188    3.427430    0.369142
C      -3.401193    2.822014   -0.684916
C      -2.260733    1.913386   -1.241254
H      -3.079065    0.977940    1.105821
H      -1.824201    1.828964    2.111137
H      -0.798343    3.623428    1.283296
H      -1.232913    4.207332   -0.383979
H      -4.365233    2.327372   -0.553229
H      -3.543517    3.764738   -1.216330
H      -1.789556    2.329889   -2.131452
H      -2.603849    0.905475   -1.474323
