20

C      -0.241805    1.580025    0.067575
C       1.134619    0.941622   -0.037853
C      -0.096306    0.088899   -0.049014
O      -0.385571   -0.662993    1.113922
C      -1.075941   -1.862400    0.745605
C      -1.655835   -1.600296   -0.648943
C      -0.568868   -0.716231   -1.233880
C      -0.471730   -0.265268   -2.633886
N       0.386069   -1.367766   -2.150544
H      -0.538036    1.960540    1.038883
H      -0.619071    2.139032   -0.781934
H       1.696983    1.075188   -0.958202
H       1.741520    0.905042    0.859520
H      -0.371111   -2.705837    0.718168
H      -1.831824   -2.066204    1.509361
H      -1.807625   -2.508075   -1.234582
H      -2.601374   -1.051621   -0.577440
H      -1.231634   -0.556309   -3.354383
H      -0.015042    0.701728   -2.834668
H       1.323999   -1.014266   -1.971737
