16

C       0.141658    1.508943    0.181146
C      -0.130573    0.026716   -0.100816
C       0.650905   -0.510302   -1.285202
O       0.351660    0.109608   -2.512784
C       2.063207   -1.011761   -1.096091
C       0.929729   -1.975480   -1.401999
H       1.203249    1.686505    0.385787
H      -0.148916    2.132349   -0.671538
H      -0.429552    1.858075    1.046218
H       0.115804   -0.569401    0.785616
H      -1.200366   -0.120413   -0.294526
H       0.746435    0.988023   -2.503288
H       2.770169   -0.813405   -1.894024
H       2.489399   -1.013041   -0.098163
H       0.581849   -2.634284   -0.613779
H       0.893180   -2.395762   -2.400195
