19

C       0.079507   -1.209351   -0.310649
C      -0.001374   -0.020206   -0.128537
C      -0.021953    1.386876    0.087316
C      -1.181709    2.065930    0.052254
C      -1.362008    3.555006    0.199553
C      -0.624007    4.217714    1.374504
C       0.900125    4.174961    1.273635
O       1.446479    2.880015    1.430796
C       1.346930    2.036613    0.305190
H       0.130061   -2.257631   -0.470739
H      -2.085535    1.490220   -0.127985
H      -1.047306    4.046893   -0.735071
H      -2.432088    3.765812    0.293323
H      -0.929666    5.270321    1.429978
H      -0.924568    3.743334    2.315321
H       1.227983    4.609758    0.313005
H       1.339134    4.778564    2.074946
H       2.087553    1.247794    0.454519
H       1.630903    2.587882   -0.608542
