20

C      -0.150558    1.545664   -0.072920
C       0.062326    0.034440   -0.046989
C       0.975506   -0.531783   -1.158831
C       1.192235   -1.996395   -0.684044
C       1.987035   -1.298246    0.454259
C       2.409798   -0.256712   -0.617985
C       0.849400   -0.551919    1.204352
C       1.340260    0.446433    2.147138
N       1.736323    1.233440    2.896391
H       0.792908    2.098001   -0.053452
H      -0.690822    1.831279   -0.981420
H      -0.740444    1.878381    0.786350
H      -0.917459   -0.453160   -0.091244
H       0.689283   -0.293674   -2.183686
H       0.312346   -2.590162   -0.416326
H       1.843694   -2.567430   -1.348641
H       2.709479   -1.824979    1.076797
H       3.184778   -0.644278   -1.282127
H       2.672220    0.751123   -0.288031
H       0.223255   -1.253294    1.764590
