20

O      -0.060941    1.395226   -0.047095
C      -0.005892   -0.023593    0.043396
C      -1.417314   -0.543517   -0.001097
C      -2.327035   -0.451588   -1.243966
N      -3.089547   -1.618311   -0.684922
C      -3.405969   -1.260149    0.792711
C      -2.571369   -2.490273    1.210374
C      -1.786211   -2.089154   -0.036338
C      -2.429022   -0.097866    1.077283
H       0.839549    1.732623   -0.045440
H       0.575636   -0.451394   -0.789901
H       0.480027   -0.346335    0.979763
H      -2.894269    0.468272   -1.415389
H      -1.844216   -0.769099   -2.173860
H      -4.458084   -1.147532    1.050665
H      -2.090886   -2.483975    2.191425
H      -3.099003   -3.431055    1.040385
H      -1.143196   -2.762243   -0.606950
H      -2.038231   -0.122269    2.098691
H      -2.827413    0.899788    0.882135
