25

C       0.050871    1.499052   -0.135579
C      -0.001259   -0.023490    0.065917
C       0.759137   -0.438308    1.335239
C      -1.428836   -0.556817    0.050860
C      -2.319624   -0.467868   -1.232026
C      -3.102245   -1.616551   -0.539273
C      -1.725906   -2.091891    0.000744
C      -3.695714   -0.901270    0.688862
C      -2.431638   -0.096598    1.140094
H       1.086865    1.844758   -0.214647
H      -0.472942    1.801050   -1.048170
H      -0.409157    2.029305    0.705567
H       0.513158   -0.485093   -0.789818
H       0.742492   -1.523800    1.476070
H       1.806695   -0.124255    1.280094
H       0.324758    0.022028    2.229514
H      -2.849581    0.468673   -1.434420
H      -1.786145   -0.798372   -2.127625
H      -3.760972   -2.281864   -1.098489
H      -1.126448   -2.602880   -0.757853
H      -1.706838   -2.657132    0.938330
H      -4.536305   -0.251694    0.426787
H      -4.042020   -1.603652    1.453034
H      -2.102912   -0.366432    2.147752
H      -2.596788    0.984447    1.122299
