21

C      -0.046441    1.654885    0.181829
C      -0.032892    0.133468    0.096829
C      -1.389299   -0.482761   -0.239107
C      -1.941705   -0.075264   -1.600952
O      -3.112364   -0.849987   -1.828590
O       0.985102   -0.319644   -0.853162
C       1.809502   -0.860480    0.194974
C       0.726118   -0.573475    1.255972
O       1.060477    0.273581    2.328585
H       0.925631    2.032648    0.502955
H      -0.277416    2.080922   -0.798354
H      -0.797289    1.999630    0.899239
H      -1.292861   -1.574305   -0.237822
H      -2.111566   -0.220906    0.544149
H      -2.175393    0.999958   -1.618136
H      -1.177383   -0.264056   -2.368844
H      -3.451366   -0.627029   -2.700274
H       2.072494   -1.909920    0.015632
H       2.725192   -0.274871    0.351837
H       0.207386   -1.474030    1.607057
H       1.453726   -0.257816    3.027000
