15

O       0.060829    1.410367   -0.271503
C      -0.013762    0.030721    0.015939
C       0.524489   -0.335412    1.429167
O      -0.253012   -1.445514    1.867470
C      -1.448893   -1.495923    1.190449
N      -2.361831   -2.333254    1.406536
C      -1.484797   -0.396867    0.152673
C       0.687396   -0.749914   -1.022696
N       1.273377   -1.327566   -1.834077
H       0.970987    1.639037   -0.492932
H       1.577742   -0.622057    1.443189
H       0.365632    0.532095    2.081053
H      -2.108365   -2.961100    2.171122
H      -2.041026    0.466152    0.533254
H      -1.949915   -0.727510   -0.774258
