17

O       0.344513    1.272943   -0.148817
C       0.232059   -0.101544    0.068411
C       0.229556   -0.634191    1.557169
C      -1.180311   -1.165158    1.303318
O      -1.978683   -0.036917    0.889662
C      -1.179994   -0.710660   -0.097759
C      -1.866303   -1.228463   -1.332635
C      -2.136438   -0.182261   -2.316067
C      -2.353265    0.680290   -3.123048
H      -0.433422    1.673057    0.261295
H       0.991079   -0.593257   -0.545327
H       0.973946   -1.415642    1.728541
H       0.309469    0.132010    2.331794
H      -1.707883   -1.990454    1.767336
H      -1.239676   -2.006987   -1.787327
H      -2.803847   -1.711406   -1.031851
H      -2.543655    1.445090   -3.834556
