21

C      -1.118506    1.041412   -0.045962
C      -0.094092   -0.083381   -0.061460
C       1.171662    0.070841   -0.949728
C       2.041766   -0.535083    0.188702
C       3.199163    0.320898    0.690971
C       2.537976    1.395917    1.562709
O       2.990770    2.482339    1.812896
C       1.193756    0.849771    2.069288
C       0.825719   -0.345972    1.176777
H      -0.653018    2.015088    0.140650
H      -1.632009    1.107344   -1.011625
H      -1.881127    0.880882    0.724544
H      -0.601131   -1.022541   -0.309032
H       1.174657   -0.452789   -1.908846
H       1.418876    1.121913   -1.138891
H       2.316399   -1.575176    0.007325
H       3.873629   -0.256255    1.339043
H       3.811042    0.776823   -0.091681
H       1.348660    0.531937    3.107987
H       0.454032    1.653251    2.104363
H       0.539260   -1.214347    1.773141
