13

C      -0.084352    1.495250    0.011074
C       1.401140    1.870841   -0.001851
C       2.196844    0.780134   -0.014786
C       1.330170   -0.398073   -0.012168
C       0.040996    0.013392    0.002451
O      -0.769992   -1.072520    0.005402
C       0.123351   -2.116295   -0.009723
N       1.377507   -1.784137   -0.019113
H      -0.592806    1.890823    0.899407
H      -0.610305    1.899609   -0.862999
H       1.728756    2.901493   -0.000038
H       3.277992    0.774756   -0.025276
H      -0.308377   -3.104403   -0.010603
