18

N       0.282386    0.712957    1.146957
C       0.068747    0.031699   -0.013963
O       0.832283    0.081010   -0.961292
C      -1.225424   -0.800440    0.007695
O      -2.224269   -0.093158    0.736385
C      -1.648780   -1.571605   -1.281226
C      -0.482944   -2.565571   -0.991818
C      -1.164038   -2.314119    0.385495
C      -2.527151   -2.472805   -0.356586
H       1.071007    1.336412    1.196128
H      -0.448330    0.766121    1.835889
H      -2.461567    0.692915    0.232044
H      -1.916779   -1.129249   -2.241376
H      -0.626064   -3.571361   -1.392357
H       0.530000   -2.202652   -1.141974
H      -0.880275   -2.719038    1.357871
H      -3.400241   -2.017706    0.105952
H      -2.736726   -3.473504   -0.741267
