23

C       0.172597    1.608048    0.006502
C       0.031231    0.081007    0.006227
C       0.517693   -0.525328   -1.327441
C       0.669438   -2.024075   -1.287656
C       0.950786   -2.704955   -0.171585
C       1.118314   -4.200044   -0.149712
C       1.131610   -1.997593    1.127141
C       2.175871   -0.891987    1.233957
C       0.711745   -0.547630    1.211411
H       1.226739    1.900403   -0.057744
H      -0.353275    2.055386   -0.844051
H      -0.238630    2.046243    0.922172
H      -1.037310   -0.162376    0.096201
H      -0.181857   -0.239437   -2.122224
H       1.474009   -0.057790   -1.609321
H       0.571556   -2.559413   -2.229171
H       0.978632   -4.636342   -1.142368
H       2.116381   -4.480816    0.210775
H       0.398694   -4.669883    0.533538
H       0.994073   -2.609786    2.013883
H       2.712572   -0.786139    2.170805
H       2.776469   -0.699144    0.351712
H       0.292400   -0.233994    2.164306
