21

C       0.165255    1.450627    0.239088
C      -0.191153    0.003846   -0.124061
C       0.605181   -0.555771   -1.301609
C       0.300882    0.129547   -2.627162
O       2.060484   -0.509157   -1.054562
C       2.182708   -1.902358   -1.335214
C       1.444629   -2.722074   -0.308277
C       0.699972   -2.089621   -1.465794
O      -0.014338   -2.814013   -2.400574
H       1.239058    1.540617    0.424916
H      -0.100772    2.152110   -0.557041
H      -0.366074    1.762384    1.143342
H      -0.021945   -0.632665    0.750577
H      -1.259611   -0.073543   -0.365461
H       0.548957    1.192553   -2.573993
H       0.885444   -0.322386   -3.431787
H      -0.759380    0.029218   -2.879909
H       3.030884   -2.241335   -1.917607
H       1.566766   -3.795702   -0.422004
H       1.355628   -2.366637    0.714037
H      -0.755157   -3.238390   -1.954012
