19

C       0.592541   -0.144622    1.409745
C       0.072133   -0.173822   -0.031365
C      -1.349556   -0.697692   -0.130737
C      -1.839787   -1.330163   -1.410594
C      -1.594220   -2.175569   -0.174251
O      -2.301906    0.003081    0.628772
C      -2.632008    1.281716    0.123769
H       1.604682    0.268431    1.456107
H      -0.057252    0.465385    2.043164
H       0.617241   -1.152071    1.837914
H       0.128613    0.831809   -0.468128
H       0.716346   -0.805890   -0.653300
H      -2.873532   -1.154069   -1.686378
H      -1.155404   -1.417706   -2.247820
H      -0.737452   -2.840799   -0.160210
H      -2.465506   -2.539207    0.357596
H      -1.792440    1.988206    0.186948
H      -2.964279    1.231960   -0.922996
H      -3.451070    1.662565    0.738931
