16

O      -0.028755    0.016435   -0.380911
C      -0.011749    1.171721   -0.053133
C      -1.237867    2.021114    0.311378
O      -0.777078    3.255843    0.837779
C       0.627520    3.400879    0.630921
C       1.536746    3.194350    1.848032
C       1.322647    1.877209    2.469380
N       2.145349    1.922798    1.243786
C       1.197794    2.097956    0.067285
H      -1.852074    2.176426   -0.589069
H      -1.857260    1.499358    1.051009
H       0.827372    4.320632    0.076003
H       2.166013    3.957962    2.291502
H       1.920555    1.648258    3.345718
H       0.342722    1.408766    2.467643
H       1.765997    2.136631   -0.862637
