18

N      -0.100611    1.219443   -0.333022
C      -0.090220   -0.002033   -0.040998
O       0.937981   -0.801758    0.432801
C       0.071080   -1.979624    0.471782
C      -1.078751   -1.121692   -0.049509
C      -2.516857   -1.186637    0.380709
C      -3.269189    0.061271   -0.102399
C      -2.861780   -0.287019   -1.574005
C      -2.119591   -1.526411   -1.054648
H       0.815704    1.644382   -0.180072
H       0.444752   -2.761344   -0.195780
H      -0.022395   -2.361657    1.492404
H      -2.810344   -1.844075    1.191801
H      -4.346615   -0.013700    0.057780
H      -2.909269    1.014930    0.288778
H      -3.723762   -0.546093   -2.192054
H      -2.248929    0.450441   -2.096115
H      -2.053060   -2.491777   -1.544413
