19

C       0.386294    1.604783    0.032205
C      -0.011013    0.152570    0.192304
O       0.507244   -0.696739   -0.868830
C       1.251403   -1.502219    0.062001
C       0.753338   -0.679527    1.253586
O       1.737629   -0.020278    2.067025
C       1.014241   -0.319633    3.281218
C       0.051408   -1.243695    2.500959
O      -1.325414   -0.971862    2.546163
H       1.472456    1.720745    0.054270
H       0.007176    1.986401   -0.920625
H      -0.041882    2.208299    0.839350
H      -1.098746    0.043731    0.271175
H       0.941749   -2.555849    0.047959
H       2.335749   -1.438250   -0.093308
H       1.659558   -0.774814    4.040326
H       0.513051    0.564190    3.695083
H       0.261509   -2.310184    2.654671
H      -1.710971   -1.438045    3.293853
