13

C      -0.022575    1.495388    0.122598
O       1.263241    2.005803   -0.351137
C       2.253218    1.199520   -0.771922
N       2.280185   -0.079489   -0.842082
C       1.096828   -0.624578   -0.409523
C      -0.006594    0.007124    0.047005
N      -0.975426   -0.921534    0.378605
C      -0.405428   -2.055758    0.105292
O       0.861321   -1.965256   -0.380956
H      -0.156636    1.874681    1.142996
H      -0.795439    1.951669   -0.507909
H       3.111720    1.790660   -1.076585
H      -0.809169   -3.049157    0.215253
