15

N      -0.007665   -3.753844   -0.086867
C       0.005612   -2.592351   -0.047376
C       0.023133   -1.229377    0.002142
C       0.035465   -0.020029    0.052332
C       0.033058    1.407302    0.090313
C       0.515289    2.194576    1.262736
C       1.645708    1.493349    2.007720
C       2.385433    1.469907    0.643418
N       1.272315    2.232303   -0.039786
H      -0.782409    1.862358   -0.466641
H      -0.062670    3.042525    1.617430
H       2.130631    2.138164    2.741660
H       1.401216    0.537718    2.477171
H       3.289628    2.079106    0.621397
H       2.593690    0.495574    0.195675
