18

C       0.072187    1.515642   -0.122731
C       0.012976    0.004413   -0.020227
C       1.308996   -0.778843   -0.139638
C       0.632911   -0.661799    1.196004
C      -1.203295   -0.618009   -0.581363
C      -2.279296   -0.042412   -1.176841
O      -3.158040   -1.033965   -1.534704
C      -2.554569   -2.168859   -1.129176
N      -1.406727   -2.000895   -0.562810
H       1.000039    1.895246    0.313859
H       0.035217    1.846217   -1.167254
H      -0.763432    1.984471    0.409823
H       1.261021   -1.737921   -0.641497
H       2.216060   -0.210311   -0.315697
H       1.071094   -0.012099    1.946255
H       0.135085   -1.543002    1.582843
H      -2.572316    0.964503   -1.413751
H      -3.079881   -3.092965   -1.313925
