13

O       0.303301    1.048432   -0.655682
C      -0.098669    0.174719    0.369746
C      -1.434159   -0.450820    0.106386
C      -2.189470   -0.656687   -1.012389
N      -3.367119   -1.322022   -0.662056
C      -3.263730   -1.479611    0.610242
O      -2.119171   -0.979103    1.153262
C      -1.862606   -0.305308   -2.347259
N      -1.554038   -0.030629   -3.428891
H       0.474902    0.546214   -1.460025
H       0.643035   -0.617506    0.563649
H      -0.166377    0.769807    1.287093
H      -3.957670   -1.947076    1.290354
