18

C      -0.014131    1.590972    0.002744
C      -0.043950    0.058529   -0.014321
C       0.749722   -0.534608    1.167989
C      -1.451483   -0.459809   -0.026291
N      -2.521363    0.253833    0.156023
N      -3.558708   -0.650028    0.075860
C      -3.161923   -1.947019   -0.166750
O      -3.818385   -2.956622   -0.298563
N      -1.770543   -1.786735   -0.222728
H       1.020948    1.943293   -0.023544
H      -0.547866    2.008079   -0.854172
H      -0.489130    1.977959    0.908206
H       0.433510   -0.288101   -0.942567
H       0.324133   -0.203219    2.120403
H       0.743371   -1.629069    1.160493
H       1.792204   -0.205627    1.125986
H      -4.508951   -0.338739    0.169453
H      -1.141878   -2.551058   -0.397537
