17

O      -0.003960    0.009658    0.099961
C       0.041754    1.224713    0.080346
N       1.178514    1.950779    0.088102
C       2.547888    1.411263    0.050220
C       3.288803    2.760037   -0.072058
C       2.529372    3.631903    0.979938
C       1.358508    3.401799   -0.016961
C       2.425052    3.497902   -1.145824
H      -0.861649    1.868294    0.062134
H       2.789634    0.858716    0.963449
H       2.692970    0.747543   -0.807616
H       4.375393    2.719747   -0.122859
H       2.410177    3.241154    1.993271
H       2.876424    4.666131    0.997369
H       0.424227    3.960650   -0.005636
H       2.763103    4.519375   -1.327324
H       2.210150    2.983630   -2.085674
