20

C      -0.783618    1.182379   -0.050516
C       0.121526   -0.039631   -0.030071
C       1.491606    0.026891   -0.790918
C       2.161759   -0.615635    0.433244
C       3.025804   -1.814890    0.475899
N       3.525327   -0.499620    0.933541
C       0.915215   -0.365752    1.248252
C       0.816449    0.191748    2.597135
O       0.472040   -1.177586    2.316076
H      -0.240523    2.081563    0.260197
H      -1.181796    1.361191   -1.054996
H      -1.636082    1.053228    0.625090
H      -0.434342   -0.931384   -0.339180
H       1.556595   -0.515783   -1.736561
H       1.817647    1.060524   -0.949428
H       2.883301   -2.545168    1.267076
H       3.391145   -2.215957   -0.466457
H       4.124324   -0.086177    0.222117
H       1.727524    0.331618    3.175531
H      -0.021576    0.834168    2.863523
