20

C       0.174179    1.319445   -0.368371
C      -0.107450   -0.042010    0.225784
O       0.329814   -1.112693   -0.693247
C       1.265113   -1.571681    0.185588
O       2.061818   -2.439671    0.013758
C       0.852193   -0.610665    1.312986
N       1.873720    0.248869    1.866269
C       1.321936    1.134043    2.884603
C       3.013454   -0.503040    2.390822
H       1.248890    1.483223   -0.469121
H      -0.296220    1.392574   -1.353116
H      -0.241086    2.110550    0.263134
H      -1.168333   -0.184496    0.446746
H       0.293254   -1.170031    2.088372
H       0.942484    0.583729    3.766639
H       2.097745    1.826470    3.224001
H       0.498796    1.724315    2.473363
H       3.419587   -1.159181    1.620811
H       3.789445    0.202805    2.701445
H       2.746038   -1.123411    3.266322
