23

C      -0.112894    1.695683   -0.009734
C      -0.034326    0.172689   -0.145434
C      -1.390113   -0.516485    0.039676
C      -1.316223   -2.042302   -0.101957
C      -2.661988   -2.730978    0.112431
C      -2.760235   -4.291981    0.094036
C      -3.610697   -4.270419    1.399764
C      -3.231137   -2.787688    1.544274
O      -3.251252   -2.010750    2.456398
H       0.869424    2.160608   -0.139968
H      -0.786678    2.125976   -0.759215
H      -0.491060    1.984481    0.977041
H       0.375614   -0.088074   -1.130688
H       0.675868   -0.224264    0.592104
H      -1.800938   -0.270455    1.025721
H      -2.102625   -0.119367   -0.697417
H      -0.934946   -2.307054   -1.097595
H      -0.591025   -2.442290    0.619824
H      -3.419439   -2.292248   -0.551732
H      -3.232692   -4.733859   -0.784000
H      -1.785092   -4.762027    0.244517
H      -4.684238   -4.394958    1.223352
H      -3.317768   -4.925020    2.224227
