13

O      -0.058029    1.502800    0.026908
C       1.379979    1.206026   -0.015204
C       1.137515    0.119082    1.066033
O       2.057673   -0.957472    1.161745
C       2.444938   -1.431078   -0.047821
N       2.057240   -0.995282   -1.171966
C       1.118924    0.105504   -1.087012
C       0.008593    0.035571    0.004022
H       2.085228    2.035055   -0.026273
H       0.869928    0.449054    2.067241
H       3.147760   -2.252877    0.053679
H       0.796385    0.467394   -2.062157
H      -0.920939   -0.530658    0.015867
