14

C      -1.158789    0.554856    0.093615
C       0.342456    0.473470   -0.042006
O       1.119266    1.028679    0.698217
C       0.887139   -0.340265   -1.214507
C       2.053028   -1.297497   -0.927165
C       1.051369   -2.375506   -1.342943
O       1.013742   -3.553529   -1.470522
O       0.032248   -1.473555   -1.586572
H      -1.605976    0.914954   -0.839877
H      -1.570355   -0.445060    0.263854
H      -1.419487    1.218846    0.917985
H       1.024770    0.321734   -2.076476
H       2.923227   -1.218998   -1.579591
H       2.375319   -1.338788    0.113854
