18

C      -0.012707    1.581500    0.005618
C       0.001220    0.052736   -0.058110
C       0.804046   -0.489059   -1.242685
C       0.719867   -2.007261   -1.268273
O       1.096519   -2.637054   -0.031696
C       0.879072   -2.057298    1.174831
O       0.999072   -2.721239    2.168308
C       0.584308   -0.562606    1.220287
H       1.005286    1.978955    0.093490
H      -0.463046    2.010506   -0.895435
H      -0.584017    1.937610    0.869128
H      -1.035673   -0.296846   -0.168661
H       0.421918   -0.101899   -2.194119
H       1.851572   -0.170651   -1.160220
H      -0.304378   -2.324500   -1.506089
H       1.385038   -2.437726   -2.021206
H       1.547681   -0.082096    1.444265
H      -0.050177   -0.390643    2.093321
