17

N       0.395841    1.293092    0.343670
C       0.072680   -0.055880    0.079163
C      -1.115446   -0.740699   -0.047409
C      -0.793900   -2.115688   -0.229466
C       0.574509   -2.224652   -0.216826
N       1.104608   -0.968182   -0.015938
C       2.502566   -0.625541    0.090373
C       2.834690    0.125248    1.380456
O       3.810806    0.814649    1.500697
H       0.578767    1.832744   -0.497661
H      -0.344821    1.755478    0.855831
H      -2.100755   -0.301027   -0.012246
H      -1.490347   -2.929149   -0.362399
H       1.222695   -3.077249   -0.342605
H       3.078919   -1.557838    0.099869
H       2.860181   -0.031698   -0.757879
H       2.128214   -0.068190    2.215050
