19

C       0.019474    1.444837   -0.031774
N       0.030077   -0.001267   -0.019490
C       0.041852   -0.816174   -1.121308
C       0.045233   -0.278006   -2.513801
C       0.049690   -2.128558   -0.683117
C       0.043182   -2.096902    0.733999
O       0.046930   -3.144736    1.617972
C       0.031039   -0.780522    1.137668
N       0.018099   -0.181699    2.416369
H       0.912099    1.846749   -0.524369
H      -0.864662    1.832389   -0.550184
H       0.001878    1.783118    1.004636
H       0.923466    0.347259   -2.721260
H       0.055677   -1.106091   -3.226461
H      -0.840395    0.333344   -2.731073
H       0.059434   -3.003329   -1.317651
H       0.052734   -3.962055    1.112635
H       0.838636   -0.437877    2.956960
H      -0.790670   -0.474379    2.955943
