20

C      -0.167499    1.568990    0.048545
C       0.040922    0.053877   -0.039493
O       0.716198   -0.322300   -1.237063
C       2.125684   -0.293692   -1.110853
C       2.582800   -0.809505    0.236262
C       1.653559   -1.758113    1.037243
C       2.386310   -1.198587    2.269603
N       2.175453    0.074571    1.439053
C       0.759469   -0.499536    1.180518
H       0.785824    2.088510    0.175291
H      -0.654339    1.930630   -0.860819
H      -0.801513    1.821012    0.905209
H      -0.937550   -0.439252   -0.106232
H       2.519098   -0.928210   -1.912566
H       2.527750    0.722094   -1.260622
H       3.654294   -1.035483    0.239666
H       1.359883   -2.788494    0.810097
H       1.852831   -1.185836    3.224553
H       3.440973   -1.456701    2.403085
H       0.127986   -0.438333    2.073080
