22

C      -0.139588    1.277329   -0.266456
N       0.243249   -0.118655   -0.111145
C       1.673827   -0.396205    0.027941
C       0.753437   -0.539001    1.184216
C       0.805493    0.245680    2.506588
C       0.655820   -1.112962    3.255958
C       0.325868   -1.824582    1.908410
C      -1.140256   -2.172703    1.717327
O      -1.453653   -3.236109    2.607257
H       0.493712    1.979565    0.299714
H      -0.084861    1.547766   -1.325763
H      -1.175406    1.410480    0.063169
H       2.042468   -1.270163   -0.504432
H       2.358035    0.452665    0.040431
H       1.712033    0.821440    2.708188
H      -0.056377    0.906535    2.644201
H       1.592017   -1.457058    3.699987
H      -0.128460   -1.168055    4.013010
H       0.930704   -2.710394    1.692472
H      -1.763394   -1.286011    1.923003
H      -1.314599   -2.453537    0.668583
H      -2.378139   -3.468616    2.481753
