16

C       0.044242    1.494114    0.068565
C       1.306604    0.629002   -0.035260
N       2.189840    0.443780    1.082918
C       1.886570   -0.442556    1.934090
O       0.789644   -1.248757    2.012488
C      -0.311590   -0.951293    1.165919
C      -0.647192   -1.928558    0.017468
O      -0.659079   -0.831216   -0.935530
C      -0.047394    0.013997    0.034291
H      -0.176893    2.006968    1.000372
H      -0.220987    2.038555   -0.831601
H       1.820353    0.685320   -0.989619
H       2.552043   -0.665561    2.764767
H      -1.167712   -0.716215    1.805692
H       0.158422   -2.643713   -0.185277
H      -1.611834   -2.440049    0.060795
