19

C       0.085010    1.494559   -0.093815
C      -0.036179    0.004142   -0.031043
O       0.454012   -0.733133   -1.165791
C      -0.252029   -1.858191   -0.564850
C       0.656553   -2.165157    0.639348
C       0.366285   -0.799343    1.302534
O       1.286565   -0.221799    2.170538
C      -1.153749   -0.922104    1.620488
C      -1.304324   -0.878428    0.091697
H       1.140595    1.783896   -0.097315
H      -0.388937    1.884543   -0.999045
H      -0.384491    1.956438    0.779450
H      -0.514360   -2.644864   -1.271051
H       0.344078   -3.014852    1.254300
H       1.692897   -2.286470    0.318060
H       1.494896   -0.851290    2.869164
H      -1.494786   -1.802454    2.173525
H      -1.553455   -0.013675    2.079116
H      -2.233747   -0.679566   -0.437509
