14

C       0.723007    1.480239   -0.053136
N       0.888168    0.054463   -0.251712
C      -0.025182   -0.697757   -0.912253
O      -1.062139   -0.305209   -1.407678
C       0.388313   -2.141455   -0.977586
N       1.468311   -2.684448   -0.489769
C       1.305181   -3.996930   -0.847891
N       0.207645   -4.253459   -1.509038
O      -0.410825   -3.007594   -1.597514
H       0.695108    1.728525    1.013124
H       1.537941    2.040694   -0.523497
H      -0.222295    1.770344   -0.512910
H       1.705030   -0.419491    0.104082
H       2.014645   -4.776850   -0.613810
