22

C      -0.058838    1.554033   -0.053456
C      -0.026113    0.023845    0.065766
C       0.959269   -0.390453    1.183727
C      -1.437937   -0.511195    0.388008
C       0.465422   -0.581068   -1.257521
O       0.884011    0.107263   -2.167978
C       0.430230   -2.074114   -1.423858
C      -0.188126   -2.577231   -2.694763
N       1.252838   -2.643732   -2.501060
H       0.929072    1.952245   -0.295397
H      -0.742195    1.873855   -0.844750
H      -0.392701    1.995955    0.890844
H       0.641171    0.050271    2.134320
H       1.002468   -1.474952    1.319371
H       1.971743   -0.033939    0.969992
H      -2.154457   -0.235148   -0.392224
H      -1.456389   -1.599404    0.494927
H      -1.788859   -0.080583    1.331537
H       0.350848   -2.686361   -0.532753
H      -0.709992   -3.529857   -2.681002
H      -0.587238   -1.828655   -3.373664
H       1.675523   -1.850408   -2.986203
