20

C       0.401908    1.539685    0.031315
C      -0.020540    0.081678    0.023771
C      -1.103020   -0.323800    0.998625
C       0.337549   -0.737636    1.253111
N       0.753759   -2.093531    1.311339
C       0.844659   -2.951026    0.393377
O       0.543548   -2.942596   -0.931944
C      -0.388842   -1.999639   -1.470344
C       0.035373   -0.545301   -1.360244
H       1.418277    1.659667   -0.361880
H      -0.269429    2.148243   -0.586921
H       0.384503    1.953605    1.043994
H      -1.534771    0.440951    1.636366
H      -1.795404   -1.112518    0.728058
H       0.822306   -0.168121    2.042385
H       1.266196   -3.928130    0.631459
H      -0.468584   -2.279257   -2.523813
H      -1.371166   -2.165855   -1.010635
H      -0.612897    0.033486   -2.034410
H       1.053920   -0.453128   -1.760333
