21

C      -0.006818    1.550970   -0.000230
C      -0.062666    0.051545    0.114083
C      -1.267659   -0.720942   -0.411424
C      -1.178891   -2.115692    0.239590
C      -0.300999   -3.218571   -0.425786
C       0.546089   -3.326355    0.874372
C      -0.145494   -2.039824    1.415953
C       0.589128   -0.738433    1.178339
O       1.175028   -0.642548   -0.133426
H       0.913870    1.936635    0.444597
H      -0.031043    1.860812   -1.050989
H      -0.862336    2.012937    0.503966
H      -2.185826   -0.200525   -0.112508
H      -1.264922   -0.768674   -1.506705
H      -2.161830   -2.491710    0.530925
H      -0.829555   -4.125128   -0.731930
H       0.274536   -2.840468   -1.272042
H       0.302821   -4.209094    1.471031
H       1.629988   -3.272888    0.754052
H      -0.529672   -2.083270    2.439102
H       1.173790   -0.274620    1.970947
