19

C       0.167874    1.472527   -0.028552
O       1.211442    0.506896   -0.160227
C      -0.130757    0.032856    0.014973
C      -0.434391   -0.712620    1.271971
C      -1.901027   -0.996787    1.750786
C      -1.153661   -2.045606    2.609917
C      -0.215177   -2.262145    1.400920
O      -0.364312   -1.245147    3.503153
C       0.189610   -0.259219    2.603247
H       0.183576    2.055711    0.890109
H      -0.063390    2.037982   -0.930343
H      -0.555829   -0.411168   -0.887409
H      -2.434438   -0.201968    2.277936
H      -2.522157   -1.435750    0.967720
H      -1.641372   -2.845497    3.163878
H      -0.674714   -2.817598    0.580986
H       0.794307   -2.624584    1.606810
H       1.282629   -0.310120    2.601550
H      -0.124526    0.743963    2.914353
