20

C      -0.264298    1.413514   -0.038234
N      -0.065627   -0.009890    0.040471
C      -0.998901   -1.139141    0.190914
C       0.242213   -2.075956    0.057313
C       1.062838   -0.777759   -0.110347
O       2.214714   -0.485694   -0.305807
C      -1.768727   -1.178749    1.483213
C      -3.129842   -0.529407    1.580878
C      -3.009240   -2.030793    1.587905
H       0.716391    1.875367   -0.176579
H      -0.905116    1.686031   -0.886792
H      -0.717063    1.809220    0.877903
H      -1.694331   -1.218979   -0.657079
H       0.483111   -2.652089    0.953086
H       0.250635   -2.732708   -0.814302
H      -1.142401   -1.122156    2.370075
H      -3.392949   -0.027085    2.504848
H      -3.533601   -0.059656    0.689545
H      -3.329459   -2.568832    0.701381
H      -3.188382   -2.560899    2.516132
