18

O       0.036354    1.322558   -0.337305
C       0.031246   -0.046318   -0.005704
C       0.066159   -0.394456    1.498347
O      -1.290134   -0.874703    1.465387
C      -1.401816   -0.638797    0.035543
C      -2.548008    0.248558   -0.334464
C      -3.176471    0.117778   -1.701470
C      -3.923432   -0.354916   -0.483346
H       0.940435    1.645943   -0.275165
H       0.737969   -0.610309   -0.627183
H       0.777099   -1.177997    1.792157
H       0.184977    0.475002    2.157414
H      -1.482988   -1.595873   -0.500543
H      -2.491137    1.248190    0.080301
H      -3.504332    1.025304   -2.195081
H      -2.777684   -0.632828   -2.376431
H      -4.026943   -1.424084   -0.330750
H      -4.770631    0.225982   -0.136935
