20

C       0.107126    1.544069   -0.060875
C      -0.012469    0.020947    0.015481
C      -1.473405   -0.518245    0.014468
C      -1.456206   -2.070507    0.019174
C      -2.158443   -0.050955    1.221092
C      -2.661780    0.296663    2.254941
C      -2.271192   -0.048284   -1.236622
N      -1.646391   -0.267382   -2.433204
O      -3.382882    0.428972   -1.172469
H       1.156074    1.850595   -0.009028
H      -0.310297    1.933170   -0.994869
H      -0.427337    2.015534    0.768241
H       0.541248   -0.444341   -0.810709
H       0.464041   -0.343119    0.932240
H      -0.938179   -2.433935    0.910665
H      -2.474847   -2.465493    0.028712
H      -0.942202   -2.457141   -0.865543
H      -3.135695    0.616135    3.149903
H      -0.689559   -0.561607   -2.506800
H      -2.117560    0.050526   -3.264167
