18

O       0.022621    1.359043   -0.413462
C      -0.082470    0.065083    0.161527
C      -1.476465   -0.497693    0.072145
C      -2.615739   -0.239024    1.065787
C      -2.918397   -1.752171    0.951626
N      -1.762767   -1.968360   -0.001940
C      -1.967007   -1.110005   -1.206796
C      -3.255413   -0.761799   -1.862259
O      -4.340030   -0.659706   -1.335555
H      -0.500226    1.966323    0.119841
H       0.602300   -0.578785   -0.398746
H       0.248929    0.062473    1.211781
H      -2.245934    0.057530    2.050372
H      -3.403500    0.445754    0.749000
H      -2.708190   -2.313256    1.863944
H      -3.890220   -2.034803    0.552413
H      -1.175700   -1.295099   -1.928968
H      -3.139019   -0.570403   -2.952650
