10

N       0.178680   -1.150222   -0.005967
C       0.075025    0.002693    0.001840
C      -0.072134    1.403026    0.011521
C      -1.160939    2.237709    0.031540
N      -0.720737    3.551899    0.032364
C       0.567373    3.453022    0.013577
O       1.042585    2.188258    0.000049
C      -2.533265    1.879981    0.049077
N      -3.648646    1.575147    0.063240
H       1.299272    4.245386    0.007493
