14

C      -0.060114    1.299545    0.089877
O       0.026483   -0.127688   -0.034063
C       0.649502   -0.565962   -1.134214
O       1.123835    0.136034   -1.994064
C       0.699923   -2.041628   -1.192590
C       1.242997   -2.853365   -2.142300
C       0.979124   -4.152608   -1.644558
N       0.335474   -4.119679   -0.499608
O       0.155802   -2.780332   -0.208085
H       0.938443    1.742388    0.115624
H      -0.613774    1.723430   -0.751384
H      -0.585696    1.480199    1.026700
H       1.746409   -2.553693   -3.045064
H       1.232515   -5.110632   -2.075222
