12

N       0.294317    1.121993    0.436359
C      -0.196692    0.277120   -0.510322
O       0.278935    0.133917   -1.618002
C      -1.384932   -0.460633   -0.089074
C      -2.364354   -1.108803    0.193178
C      -3.524218   -1.899424    0.549433
O      -3.456374   -2.854063    1.296718
C      -4.761825   -1.455224   -0.054646
C      -5.792096   -1.088046   -0.556520
H       1.142134    1.625246    0.229771
H      -0.079180    1.144669    1.369597
H      -6.705470   -0.769848   -0.998333
