16

C       0.161225    1.346890    0.081281
O      -0.250780    0.033518   -0.236493
C       0.497974   -0.555295   -1.243124
C       1.793970   -1.364936   -0.805472
O       0.892115   -2.403697   -0.316857
C       0.108553   -2.048842   -1.497160
C       1.068924   -2.385925   -2.643267
C       2.226715   -1.915255   -2.164796
H       1.181441    1.368197    0.491172
H       0.127492    2.006002   -0.799810
H      -0.529516    1.727480    0.836498
H       0.601230    0.102666   -2.117883
H       2.524614   -1.012435   -0.079242
H      -0.920085   -2.404643   -1.492009
H       0.826216   -2.845330   -3.589832
H       3.209825   -1.870328   -2.609782
