11

C       0.004686   -1.198580   -0.003347
C       0.034649    0.004036    0.003018
C       0.016721    1.428374    0.010290
C      -1.200205    2.135174    0.030255
N      -1.242636    3.459952    0.037529
N      -0.093503    4.135459    0.025523
C       1.038161    3.430904    0.006826
N       1.169380    2.102741   -0.001720
H      -0.005416   -2.261393   -0.009799
H      -2.153510    1.617311    0.040491
H       1.953536    4.015742   -0.002558
