18

C      -0.245668    1.555076   -0.259549
C      -0.137992    0.060528   -0.054540
C       1.151773   -0.657184   -0.250469
N       0.569908   -0.550905    1.083946
C       1.228056    0.262487    2.071681
C       0.335199    0.435260    3.301954
O       0.611190    1.161558    4.220198
C       2.557354   -0.347904    2.541558
O       3.102435   -1.274751    2.011113
H       0.711825    2.068376   -0.136165
H      -0.592285    1.758536   -1.277886
H      -0.968383    2.005975    0.430018
H      -1.052640   -0.479939   -0.292058
H       1.188617   -1.659410   -0.666574
H       2.024010   -0.045839   -0.475481
H       1.506336    1.285962    1.756056
H      -0.577646   -0.196357    3.281594
H       2.978223    0.174390    3.425909
