22

C       0.060415    1.608009   -0.077917
C       0.049056    0.078696   -0.014557
C      -1.364029   -0.511289   -0.029165
C      -1.379303   -2.041588    0.087607
O      -0.717944   -2.489293    1.264666
C      -2.808306   -2.612922    0.054337
C      -2.824307   -4.134625   -0.058359
O      -3.409069   -2.174937    1.279536
H       1.082142    2.000695   -0.063686
H      -0.423534    1.973975   -0.990811
H      -0.474833    2.043043    0.773707
H       0.619708   -0.328004   -0.860762
H       0.561494   -0.265329    0.889871
H      -1.955874   -0.092467    0.794654
H      -1.878609   -0.223895   -0.956953
H      -0.817797   -2.470759   -0.752325
H      -1.350527   -2.338743    1.979821
H      -3.346126   -2.173348   -0.800477
H      -2.216397   -4.576620    0.735130
H      -3.847033   -4.523341    0.016442
H      -2.421189   -4.455334   -1.024304
H      -4.202872   -2.695616    1.431799
