12

O      -0.162734    1.159599   -0.469940
C       0.032947   -0.077027   -0.022552
N       1.247277   -0.541819    0.022237
C       1.504138   -1.855473    0.286712
N       0.788746   -2.906057    0.054702
C      -0.516232   -2.838072   -0.398053
O      -0.993380   -3.511641   -1.278745
C      -1.357924   -1.880975    0.407982
N      -1.118498   -0.626612    0.487069
H       0.701042    1.490762   -0.758425
H       2.499437   -2.028395    0.695545
H      -2.238432   -2.270909    0.921029
