21

O       0.177164    1.387795   -0.243768
C       0.029632   -0.010045   -0.042138
C       0.787312   -0.486523    1.220050
C       0.539927    0.382608    2.465513
C      -0.917233    0.524063    2.913121
O      -1.759491    1.098128    1.905699
C      -2.319027    0.124061    1.062685
C      -2.542543    0.489504   -0.371463
C      -1.431882   -0.468150    0.001588
H      -0.314263    1.822464    0.465872
H       0.498986   -0.467544   -0.920512
H       0.511838   -1.529839    1.422691
H       1.862820   -0.478248    1.009890
H       1.110545   -0.026454    3.308902
H       0.945839    1.384304    2.282242
H      -1.327390   -0.447712    3.223496
H      -0.974311    1.198136    3.774426
H      -3.054413   -0.508036    1.560725
H      -3.429288    0.102973   -0.860976
H      -2.236847    1.479333   -0.688949
H      -1.570964   -1.520503   -0.230983
