18

C       0.128394    1.490652   -0.115198
C      -0.021913   -0.029758   -0.051545
C      -1.490402   -0.509912    0.066054
C      -2.272893   -0.074069   -1.095041
N      -2.875200    0.245034   -2.029141
C      -1.571659   -2.026288    0.248949
C      -2.766328   -2.816881   -0.127891
N      -1.507354   -2.950874   -0.887383
H       1.183675    1.770498   -0.178051
H      -0.381696    1.905573   -0.989832
H      -0.291291    1.969329    0.776467
H       0.428937   -0.495739   -0.934463
H       0.514275   -0.424930    0.818587
H      -1.936146   -0.036239    0.952261
H      -0.987301   -2.355726    1.106286
H      -3.043761   -3.687262    0.459290
H      -3.596012   -2.296068   -0.597452
H      -1.589784   -2.437175   -1.763369
