14

N       0.096276    1.385255    0.175940
C      -0.029893    0.016417    0.058529
C      -1.175262   -0.696013    0.028633
O      -2.391231   -0.093907    0.027353
C      -1.131451   -2.141531   -0.001360
N      -2.249045   -2.771733   -0.028764
N       0.141019   -2.742020   -0.013471
C       1.160449   -1.982941    0.002458
O       1.179746   -0.630764    0.042671
H       0.862096    1.775766   -0.358110
H      -0.777524    1.863878    0.002320
H      -3.017591   -0.842317   -0.005324
H      -2.100742   -3.778820   -0.060002
H       2.173234   -2.372559   -0.013452
