20

C      -0.193340    1.486340   -0.166762
C      -0.037429   -0.029213    0.018755
C       0.920109   -0.367464    1.171251
C      -1.391791   -0.678145    0.264498
O      -2.360227   -0.387298   -0.810975
C      -2.475400   -1.707620   -1.158740
O      -3.070741   -2.172778   -2.078052
C      -1.573097   -2.200990   -0.008349
N      -0.418750   -3.028542   -0.273132
H       0.774857    1.947858   -0.384002
H      -0.878415    1.715770   -0.986504
H      -0.587793    1.951965    0.744202
H       0.373862   -0.446224   -0.910883
H       0.541745    0.030858    2.120326
H       1.046480   -1.447745    1.274203
H       1.902076    0.082037    0.994701
H      -1.813892   -0.339056    1.216454
H      -2.174969   -2.675613    0.771405
H      -0.685036   -4.006526   -0.292118
H      -0.014256   -2.819184   -1.179825
