17

N      -0.051081    1.108056   -0.670906
C       0.003685    0.001840    0.129121
O       0.955439   -0.304816    0.821499
C      -1.226226   -0.850991    0.063163
C      -1.832997   -1.322066   -1.207274
N      -2.545497   -0.298927   -0.424788
C      -3.178384   -0.915061    0.816241
C      -2.984579   -2.386076    1.050353
C      -1.857065   -1.434753    1.338692
H       0.696011    1.777807   -0.579273
H      -0.962413    1.439639   -0.950523
H      -1.414723   -0.915263   -2.122899
H      -2.225410   -2.326872   -1.307116
H      -3.953687   -0.331686    1.294917
H      -3.493679   -2.730820    1.945775
H      -2.954287   -3.135462    0.267646
H      -1.393224   -1.320590    2.307658
