18

O      -0.082440    1.330962   -0.071975
C      -0.006086   -0.072826   -0.029520
C      -1.340512   -0.674103   -0.510969
C      -1.683323   -1.673347    0.573277
C      -0.785320   -1.720382    1.563614
C       0.327100   -0.747791    1.331607
N       1.690032   -1.241488    0.817202
C       1.436678   -2.114232   -0.343577
C       1.323951   -0.657684   -0.541128
H       0.742158    1.688367    0.276858
H      -2.096666    0.114986   -0.598859
H      -1.254899   -1.146916   -1.496949
H      -2.585894   -2.275092    0.530794
H      -0.847948   -2.367196    2.431684
H       0.516610   -0.065027    2.164455
H       2.342507   -2.595403   -0.700931
H       0.553339   -2.745539   -0.360594
H       2.038212   -0.085595   -1.128336
