21

C       0.045421    1.508137   -0.004889
C      -0.040984    0.001553    0.037670
C      -0.897032   -0.702228    1.062445
C       0.607915   -0.840104    1.120807
C       1.324451   -1.931990    0.302846
C       0.338697   -2.972088   -0.278191
C      -0.346707   -2.126802   -1.398569
C       0.388028   -0.776767   -1.232690
O       1.717383   -1.216246   -0.888129
H       1.012374    1.831515   -0.406265
H      -0.741778    1.940696   -0.634122
H      -0.061219    1.937758    0.996518
H      -1.349568   -0.070846    1.822627
H      -1.516336   -1.548438    0.790904
H       1.147218   -0.378481    1.941115
H       2.208055   -2.347034    0.786991
H       0.893411   -3.812090   -0.701198
H      -0.358274   -3.367109    0.464281
H      -0.135331   -2.539034   -2.387434
H      -1.431097   -2.048761   -1.292043
H       0.430239   -0.157915   -2.129471
