20

C      -0.110139    1.526711   -0.088000
C       0.017414    0.010304   -0.005226
C       1.193896   -0.596060   -0.818391
C       2.091062   -0.408630    0.426581
C       0.770622   -0.590500    1.241446
C       0.617379    0.007357    2.620745
N       0.471606   -2.038199    1.269181
C       0.588965   -2.608869    0.143784
O       0.950183   -2.005882   -1.015796
H       0.838823    2.045171    0.080119
H      -0.476318    1.825182   -1.076593
H      -0.823827    1.897565    0.654441
H      -0.952604   -0.456934   -0.201198
H       1.474297   -0.190784   -1.790623
H       2.887913   -1.136443    0.592149
H       2.490387    0.604697    0.486497
H       0.834628    1.079557    2.619498
H      -0.401530   -0.144137    2.991951
H       1.299427   -0.483992    3.321971
H       0.407776   -3.671359    0.002836
