19

C      -0.119530    1.592969    0.247136
C      -0.053137    0.071594    0.015634
C       0.873556   -0.608445    1.040998
C      -1.416259   -0.553230   -0.011835
N      -1.965794   -1.168150   -1.029791
C      -3.219412   -1.582958   -0.611742
C      -3.414212   -1.202620    0.686911
O      -4.415935   -1.328274    1.591887
N      -2.272137   -0.548595    1.071802
H       0.880717    2.035149    0.196583
H      -0.748475    2.078461   -0.504179
H      -0.532763    1.830701    1.234783
H       0.349809   -0.107924   -0.986244
H       0.948317   -1.682938    0.852254
H       1.880025   -0.180060    0.995393
H       0.506340   -0.472650    2.065418
H      -3.891586   -2.120770   -1.262349
H      -5.140948   -1.804958    1.176221
H      -2.116605   -0.150074    1.982492
