17

O      -0.698482    1.183203    0.921482
C      -0.060277    1.128505   -0.099183
C       1.307700    1.765099   -0.265527
C       1.316664    2.908112   -1.299196
C       2.611375    3.765513   -1.176561
C       2.621871    4.942014   -2.037144
C       2.609634    5.915049   -2.742566
C       1.164109    2.402005   -2.724471
O       1.006423    1.243567   -3.020033
H      -0.444869    0.602708   -0.996357
H       1.619837    2.137956    0.713837
H       2.009833    0.989530   -0.596116
H       0.471775    3.588550   -1.117920
H       2.711859    4.079679   -0.131299
H       3.483193    3.134458   -1.392121
H       2.611816    6.776401   -3.364060
H       1.220517    3.191791   -3.501521
