21

C      -0.162389    1.078372    0.203351
C       0.922745    0.063345   -0.147576
O       1.387414   -0.656873    0.993751
C       0.613147   -1.793624    1.329727
O       0.676303   -2.773398    0.313047
C       1.686727   -3.778089    0.384903
C       2.804982   -3.485836    1.391990
C       2.186861   -3.063855    2.698591
C       1.119340   -2.272988    2.665582
H       0.195344    1.772356    0.969577
H      -0.441382    1.655903   -0.684491
H      -1.067942    0.591773    0.579387
H       0.577212   -0.638649   -0.915760
H       1.802848    0.579629   -0.545085
H      -0.449902   -1.520991    1.374443
H       1.201800   -4.725445    0.661509
H       2.094950   -3.894387   -0.625213
H       3.424064   -4.381611    1.503483
H       3.453345   -2.687390    1.011304
H       2.612817   -3.410277    3.635346
H       0.616234   -1.916631    3.557411
