13

N       0.001451   -1.127243    0.154156
C       0.036279    0.024197    0.061598
C       0.038915    1.456259   -0.087474
C      -0.931825    2.143715   -1.038238
O      -0.423329    3.458453   -1.192987
C       0.981839    3.464563   -0.969625
C       1.246419    2.300359   -0.039386
O       0.345579    2.246038    1.066531
H      -0.960218    1.589294   -1.988936
H      -1.946212    2.216988   -0.636603
H       1.551135    3.321453   -1.901784
H       1.246710    4.434439   -0.538466
H       2.244068    1.903670    0.122969
