14

O       0.181711    1.126460   -0.011002
C      -0.146154   -0.202638    0.045467
C      -0.732533   -0.845584    1.221821
O      -1.571044    0.108391    1.915885
C      -2.472594    0.132601    0.828818
N      -3.592222    0.675660    0.723827
C      -1.633132   -0.738706   -0.032104
C      -2.019511   -1.746810   -1.028744
O      -1.251859   -2.573695   -1.467031
H      -0.185805    1.557202    0.772584
H       0.487985   -0.824574   -0.579580
H      -0.417790   -1.728311    1.763214
H      -3.858850    1.181058    1.569242
H      -3.076007   -1.690932   -1.360536
