25

C       0.009759    1.598209   -0.075924
C       0.016231    0.065070    0.013317
C       0.594010   -0.512452   -1.302881
C       1.181530   -1.934390   -1.265757
C       2.616654   -1.981418   -0.715110
C       2.749962   -1.648178    0.772552
O       2.150755   -0.421950    1.150874
C       0.729407   -0.472735    1.276066
C       0.355375    0.262792    2.561628
H       1.032987    1.986902   -0.031804
H      -0.430089    1.923830   -1.024532
H      -0.565520    2.061403    0.730294
H      -1.025915   -0.274901    0.102561
H      -0.199473   -0.467794   -2.058394
H       1.381494    0.162434   -1.661999
H       0.529048   -2.614387   -0.701423
H       1.200597   -2.324603   -2.290102
H       3.048215   -2.978632   -0.873992
H       3.231835   -1.278968   -1.292146
H       2.326877   -2.468766    1.376331
H       3.809512   -1.562910    1.038693
H       0.431590   -1.525281    1.395832
H       0.749264    1.282294    2.554043
H      -0.731320    0.311618    2.687038
H       0.780706   -0.255536    3.425337
