18

C       0.024922    1.447102   -0.041587
C      -0.017425   -0.060202   -0.015808
O       0.331590   -0.584448   -1.290906
C      -0.149017   -1.936964   -1.361911
C      -0.857141   -2.178491   -0.026192
C       0.076391   -2.132725    1.185734
C       0.645504   -0.753260    1.184690
N      -0.663085   -1.027392    1.879651
C      -1.289031   -0.784864    0.486211
H       1.035059    1.796961   -0.275920
H      -0.655880    1.834681   -0.804897
H      -0.264351    1.851209    0.932529
H      -0.825646   -2.028531   -2.221551
H       0.692642   -2.625167   -1.511993
H      -1.602534   -2.972604   -0.012241
H       0.520031   -2.954976    1.734888
H       1.535530   -0.470671    1.735287
H      -2.293522   -0.378649    0.389750
