23

C      -0.141898    1.458126   -0.305952
C       0.087935   -0.032444   -0.183660
C       1.481257   -0.599953   -0.126492
O       2.539640    0.313254   -0.193215
C       0.607218   -0.637080    1.101075
C       0.926056    0.083286    2.415726
C       0.588339   -1.233191    3.177673
C       0.117568   -1.897302    1.843333
C      -1.375794   -2.194917    1.755020
H       0.660545    2.020364    0.175724
H      -0.172046    1.763279   -1.357358
H      -1.092810    1.748837    0.154158
H      -0.627851   -0.646160   -0.727126
H       1.663754   -1.544668   -0.642924
H       3.235162    0.008204    0.399017
H       1.953824    0.445322    2.516804
H       0.256969    0.917089    2.648259
H       1.458097   -1.716615    3.628957
H      -0.187727   -1.144809    3.942673
H       0.683196   -2.800078    1.583321
H      -1.971464   -1.312674    2.015279
H      -1.665683   -2.503856    0.744577
H      -1.654127   -3.002069    2.441843
