14

C      -0.054099    1.555132   -0.001583
C      -0.014615    0.059831   -0.014379
C      -0.008399   -0.799993   -1.093305
N       0.011624   -2.059441   -0.600442
N       0.029085   -2.094075    0.755497
C       0.006225   -0.813023    1.108693
N      -0.065375   -0.433408    2.452226
H       0.869331    1.993110    0.400490
H      -0.187360    1.957231   -1.009834
H      -0.878862    1.927874    0.617223
H      -0.023270   -0.603188   -2.154513
H       0.011710   -2.925490   -1.108199
H       0.135017   -1.215409    3.063504
H       0.540932    0.345417    2.676164
