20

C       0.296828    1.395647   -0.685574
O       0.628116    0.118188   -0.154022
C       0.620992   -0.899070   -1.035567
N       0.914512   -2.066544   -0.670925
C       0.882126   -3.111225   -1.676950
C       2.212293   -3.837534   -1.698456
O       2.412271   -4.787908   -2.746790
C       3.267777   -3.636188   -2.704680
C       3.197769   -2.675752   -3.863829
H       1.024432    1.718179   -1.440287
H      -0.707439    1.399879   -1.126380
H       0.320770    2.092231    0.153041
H       0.337187   -0.612898   -2.061317
H       0.111908   -3.842428   -1.396113
H       0.624282   -2.745573   -2.682714
H       2.524207   -4.180135   -0.710365
H       4.285319   -3.870522   -2.383596
H       2.167768   -2.462945   -4.156839
H       3.693285   -1.732975   -3.607230
H       3.712561   -3.097772   -4.733378
