23

C      -0.267595    1.414514    0.103088
C       0.064810   -0.068612   -0.117492
C       0.902660   -0.272163   -1.387693
C       0.767184   -0.638891    1.102663
C       0.052996   -1.196987    2.298722
O      -1.161567   -1.855286    1.918100
C      -0.401818   -2.833390    1.161223
C       0.916844   -2.114846    1.451831
C       2.227698   -2.798627    1.710475
H       0.645530    2.008759    0.231402
H      -0.813081    1.827341   -0.752013
H      -0.884938    1.551103    0.996233
H      -0.884200   -0.603265   -0.236102
H       1.862871    0.252909   -1.314701
H       1.116571   -1.332224   -1.558826
H       0.381559    0.113754   -2.270375
H       1.664546   -0.088160    1.390146
H       0.129973   -0.840403    3.320639
H      -0.462522   -3.817280    1.642776
H      -0.737230   -2.914491    0.120226
H       2.682165   -3.160079    0.779871
H       2.943372   -2.114395    2.177220
H       2.105347   -3.660074    2.377338
