18

N       0.172724    1.356263   -0.159133
C       0.036890   -0.053016   -0.000543
C      -0.587120   -0.717748    1.263508
C      -1.042637    0.137741    2.309169
N      -1.430027    0.876892    3.113514
C      -1.325012   -0.670062   -0.090844
N      -2.456527    0.198517   -0.280394
C      -1.467623   -1.967893   -0.848335
O      -2.643790   -2.617934   -0.387461
H      -0.711224    1.777427   -0.423791
H       0.527500    1.820666    0.668525
H       0.860631   -0.639888   -0.404594
H      -0.168921   -1.665863    1.583506
H      -3.285441   -0.386975   -0.339327
H      -2.594171    0.806898    0.521746
H      -1.535786   -1.736397   -1.921715
H      -0.574079   -2.588895   -0.690808
H      -2.864820   -3.322039   -1.003789
