16

C      -0.021804    1.609790   -0.031573
C       0.076651    0.114684   -0.031041
C       0.692008   -0.883032   -0.991928
N       1.266073   -1.629186    0.125662
C       0.654747   -0.774081    1.072228
O       0.642313   -0.782330    2.267595
C      -0.817934   -0.804529   -0.903592
C      -1.620171   -1.873289   -0.382779
C      -2.282056   -2.779298    0.050303
H       0.937956    2.065306    0.232114
H      -0.321069    1.990146   -1.012970
H      -0.763644    1.945188    0.700206
H       1.256850   -0.705405   -1.898014
H       1.192243   -2.638438    0.200800
H      -1.276063   -0.246387   -1.719058
H      -2.873548   -3.569753    0.441629
