15

C      -0.231422    1.567013   -0.070605
C       0.074836    0.068203    0.058228
O      -1.089300   -0.689839    0.370469
C       0.754402   -0.443898   -1.137677
C       1.287045   -0.854558   -2.138817
C       1.980088   -1.296911   -3.341570
N       1.608890   -2.542512   -3.763142
O       2.797851   -0.608548   -3.920030
H       0.687438    2.140512   -0.219821
H      -0.888752    1.752029   -0.926398
H      -0.728960    1.912861    0.838899
H       0.738639   -0.083470    0.918198
H      -1.689378   -0.622815   -0.380989
H       1.036564   -3.136051   -3.187878
H       2.115230   -2.946479   -4.534594
