14

C      -0.043819    1.555601   -0.023283
C      -0.009162    0.027964    0.004726
C       0.762670   -0.542207    1.230613
C       0.681253   -2.001816    1.295066
C       0.583339   -3.197457    1.328847
C       2.167031   -0.097034    1.221362
N       3.259469    0.277694    1.201380
H       0.964542    1.976553   -0.075859
H      -0.601412    1.906906   -0.895759
H      -0.532611    1.959324    0.870090
H      -1.022561   -0.382039    0.052439
H       0.453096   -0.367338   -0.904733
H       0.306814   -0.124365    2.139676
H       0.507496   -4.256361    1.366594
