16

C       0.274209    1.555315   -0.211178
O       1.565739    1.405323    0.444818
C       1.328291    0.008082    0.694057
C      -0.025866    0.055743   -0.062922
C       0.588901   -0.868100   -1.164281
O       1.238230   -0.182279   -2.250009
C       2.540768   -0.306408   -1.610584
C       1.919691   -0.970653   -0.372124
H      -0.384487    2.209180    0.371820
H       0.372418    1.928777   -1.233930
H       1.459439   -0.260281    1.745995
H      -0.980593   -0.249484    0.363590
H      -0.016473   -1.713706   -1.502314
H       3.199376   -0.960484   -2.193445
H       3.015207    0.665307   -1.449907
H       2.347610   -1.902911   -0.005574
