20

C       0.462882    1.609269    0.000538
C       0.152025    0.114219   -0.020588
N       0.678921   -0.602099   -1.187837
C      -0.256251   -0.729959   -2.289137
C       1.273696   -1.859309   -0.751951
C       2.602373   -1.732003   -0.086591
C       1.334765   -1.894166    0.759614
C       0.681166   -0.632571    1.219590
O       0.508390   -0.272530    2.357531
H       1.539641    1.779783   -0.086318
H      -0.031045    2.127751   -0.826462
H       0.111727    2.040591    0.942013
H      -0.945736   -0.018193    0.038731
H      -0.574277    0.263829   -2.618621
H       0.232309   -1.216987   -3.138635
H      -1.165066   -1.308006   -2.034251
H       1.027401   -2.739590   -1.335685
H       3.269358   -2.586883   -0.076000
H       3.092061   -0.764952   -0.121276
H       1.230724   -2.780803    1.371973
