17

C       0.048569    1.496751    0.023415
C       0.055956   -0.012099    0.015739
C       0.047625   -0.728655   -1.184000
C       0.054377   -2.121486   -1.199286
O       0.046494   -2.849531   -2.358408
C       0.069782   -2.819989    0.007275
C       0.078189   -2.122363    1.206937
C       0.071408   -0.728635    1.219335
O       0.080483   -0.113020    2.443517
H       0.936209    1.910360    0.521142
H       0.036661    1.894361   -0.993947
H      -0.833219    1.901619    0.538433
H       0.035600   -0.180742   -2.123968
H       0.036292   -2.244062   -3.106275
H       0.074994   -3.903611   -0.009498
H       0.090173   -2.647953    2.155134
H       0.074376    0.840490    2.319972
