18

C      -0.025621    1.541962    0.003674
C       0.027545    0.014798    0.013202
C       0.954704   -0.566300   -1.058861
O       2.253011   -0.328420   -0.607064
C       2.231475   -0.306747    0.842403
C       0.774123   -0.623396    1.204188
N       0.566647   -2.082505    1.184511
C       0.544706   -2.605978    0.030003
O       0.707774   -1.993091   -1.169481
H       0.973331    1.986439   -0.006310
H      -0.556769    1.904023   -0.882661
H      -0.556511    1.916538    0.884421
H      -0.980454   -0.399012   -0.074078
H       0.853557   -0.183891   -2.074440
H       2.923204   -1.062096    1.223097
H       2.550466    0.682810    1.189431
H       0.484396   -0.231552    2.180795
H       0.377480   -3.672661   -0.103029
