18

O      -0.136077    0.424414    0.918333
C      -0.010907    1.419316    0.282256
O      -1.001518    2.177334   -0.295733
C      -0.044562    3.178701   -0.793735
C      -0.180077    4.535356   -0.127017
C      -0.039614    4.437460    1.401091
C       1.220109    3.634985    1.857977
N       1.960122    2.932847    0.797775
C       1.128246    2.339189   -0.213366
H      -0.114597    3.230952   -1.882770
H       0.608478    5.174523   -0.547584
H      -1.134270    5.001439   -0.393255
H      -0.018545    5.445075    1.826560
H      -0.938081    3.955022    1.796611
H       1.934565    4.293388    2.358580
H       0.916794    2.887357    2.599601
H       2.645332    3.540900    0.365503
H       1.747950    1.848173   -0.968146
