14

C       0.105700    1.550880    0.062408
C       0.009921    0.069413    0.034559
C      -1.070194   -0.742044   -0.041061
O      -0.652427   -2.072702   -0.036934
C       0.721050   -2.100687    0.042887
O       1.391057   -3.093929    0.067532
N       1.111744   -0.773822    0.086020
C      -2.438845   -0.454440   -0.116586
C      -3.616302   -0.205662   -0.181331
H       0.689752    1.930206   -0.784331
H      -0.894762    1.984112    0.011069
H       0.587700    1.903710    0.981770
H       2.078033   -0.503477    0.148170
H      -4.654303    0.010828   -0.238407
