23

C       0.413225    1.652898    0.380641
C       1.560219    2.079741   -0.570537
C       2.158299    0.761885   -1.105193
C       0.912353   -0.139671   -1.218620
C       0.106551    0.152028    0.069865
C       0.476799   -0.784949    1.240035
C       1.973779   -1.112560    1.366677
O       2.832223   -0.000604    1.169887
C       3.239519    0.195961   -0.174828
H       0.712472    1.769309    1.424672
H      -0.474238    2.275151    0.231458
H       1.161979    2.662301   -1.408243
H       2.307415    2.704457   -0.072135
H       2.635275    0.905649   -2.082715
H       0.330455    0.166075   -2.095615
H       1.151258   -1.200408   -1.350534
H      -0.963864    0.023424   -0.118146
H       0.120156   -0.332998    2.173233
H      -0.055942   -1.739804    1.137887
H       2.179724   -1.490988    2.374583
H       2.247701   -1.913032    0.662199
H       3.626064   -0.751623   -0.587688
H       4.077128    0.901083   -0.124411
