21

C      -0.065748   -0.437308    0.990075
C       0.214644   -1.744571    0.238014
C       0.774255   -1.528658   -1.156137
O       2.015087   -0.877153   -1.175477
C       0.619747   -2.512705   -2.257554
C      -0.064306   -3.856816   -2.124600
C      -0.148159   -1.178814   -2.351204
C      -1.613632   -1.087893   -2.215000
O      -2.288910   -0.239731   -2.752807
H       0.847824    0.151766    1.126423
H      -0.794219    0.182598    0.456921
H      -0.465162   -0.642190    1.987155
H       0.944439   -2.342350    0.797643
H      -0.703406   -2.336552    0.188370
H       1.890134    0.019952   -0.846278
H       1.476717   -2.523145   -2.925427
H      -0.896911   -3.849350   -1.418160
H      -0.456792   -4.185423   -3.092210
H       0.651679   -4.611048   -1.781483
H       0.264431   -0.444939   -3.035506
H      -2.092326   -1.856629   -1.568438
