15

C       0.019391    1.457009   -0.000535
C       1.262898    0.649994    0.049551
C       1.963157    0.361962    1.406380
C       0.860954   -0.387375    2.101018
C      -0.177143   -0.543093    1.261674
O      -1.171428   -1.220288    1.877275
C      -0.638330   -1.444591    3.127770
N       0.555058   -0.972580    3.319615
N      -0.090225   -0.029927   -0.040438
H      -0.316537    1.948593    0.908502
H      -0.259939    1.949263   -0.926938
H       1.859224    0.569932   -0.852505
H       2.864570   -0.241692    1.250549
H       2.272550    1.282510    1.913286
H      -1.263873   -1.992464    3.813579
