16

O      -0.083000    1.428735   -0.177493
C       0.008922    0.034980    0.084474
C      -1.385066   -0.549288    0.011832
C      -2.097002   -0.620969   -1.367760
C      -2.637344   -2.022387   -0.973148
C      -1.546132   -2.090473    0.130747
H       0.804591    1.798079   -0.160013
H       0.655378   -0.467172   -0.655458
H       0.442975   -0.157747    1.080405
H      -2.021525   -0.036351    0.741032
H      -2.820861    0.160484   -1.607037
H      -1.369666   -0.680659   -2.184240
H      -3.641876   -1.964502   -0.543971
H      -2.634186   -2.803670   -1.736871
H      -0.649765   -2.612791   -0.221516
H      -1.824102   -2.501189    1.104521
