19

C      -0.054722    1.409934   -0.147268
O      -0.020168    0.008031    0.001286
C      -1.296518   -0.566962    0.171339
C      -1.134648   -2.056024    0.299620
C      -2.229275   -2.971788   -0.039133
O      -1.112132   -2.811914   -0.911834
C       1.355659    1.907395   -0.300136
C       1.718079    3.284934    0.049972
O       2.074534    2.195801    0.899661
H      -0.645884    1.688525   -1.037610
H      -0.518234    1.891901    0.729119
H      -1.781770   -0.166128    1.078891
H      -1.951234   -0.344056   -0.687062
H      -0.398037   -2.370049    1.039345
H      -2.302138   -3.933189    0.466858
H      -3.173125   -2.572254   -0.409560
H       1.939562    1.388515   -1.060547
H       2.542732    3.772182   -0.467867
H       0.959425    3.959068    0.447070
