16

O      -0.067764    0.004097   -0.548430
C      -0.061010    1.144728   -0.152786
C      -1.333873    1.945507    0.049353
C      -1.380921    2.740837    1.354910
O      -0.422403    3.807405    1.408902
C       0.812414    3.547583    1.930386
O       1.329534    4.294968    2.717150
N       1.390373    2.376029    1.483136
C       1.257597    1.877804    0.109862
H      -1.420466    2.653623   -0.786142
H      -2.182674    1.258396   -0.004620
H      -2.352571    3.232495    1.444639
H      -1.250674    2.082482    2.220125
H       2.309895    2.257099    1.882276
H       2.059768    1.160796   -0.066617
H       1.356819    2.693603   -0.622032
