25

C      -0.116665    1.608151    0.012326
C       0.090789    0.100658   -0.008225
C       1.162614   -0.507188   -0.952019
C       1.468972   -1.571530    0.138148
C       2.883040   -2.047124    0.330607
C       3.166738   -3.331110    1.073940
C       3.381195   -3.260904   -0.417357
C       0.786867   -0.629956    1.191957
C       1.746470    0.225808    2.016179
H       0.818364    2.143908    0.205505
H      -0.503495    1.958663   -0.951369
H      -0.836430    1.905769    0.783588
H      -0.871041   -0.389532   -0.199896
H       0.842898   -0.858704   -1.936704
H       2.008326    0.175934   -1.090843
H       0.824285   -2.445091   -0.019287
H       3.614645   -1.255283    0.468708
H       4.038070   -3.375208    1.718248
H       2.318855   -3.902889    1.437489
H       2.676418   -3.783816   -1.055882
H       4.398956   -3.256947   -0.791848
H       0.098042   -1.138907    1.874414
H       2.462206    0.771733    1.392334
H       1.199286    0.966093    2.609344
H       2.322949   -0.395653    2.709093
