20

C      -0.110686    1.510754   -0.061160
C       0.019603    0.005919    0.019989
C       1.342662   -0.675935   -0.194191
C       0.705109   -0.682057    1.186309
C       1.307919    0.037660    2.346121
C       1.221989   -0.676239    3.474483
C       0.493866   -1.955571    3.227181
N      -0.917582   -1.738737    2.780799
C       0.151956   -1.956780    1.778489
H       0.800676    2.014762    0.274511
H      -0.297926    1.827889   -1.093164
H      -0.939053    1.871219    0.557633
H      -0.849434   -0.531072   -0.352732
H       1.371766   -1.615182   -0.738416
H       2.220123   -0.052146   -0.335815
H       1.738481    1.028449    2.263066
H       1.587851   -0.371675    4.447052
H       0.728363   -2.858370    3.781134
H      -1.421899   -2.617881    2.891993
H       0.135305   -2.864426    1.183118
