18

O      -0.178168   -0.199909   -0.119314
C      -0.045848    0.996898   -0.067979
N      -1.093464    1.866891    0.061788
C      -1.106125    3.307444    0.023473
C       0.009789    4.169690    0.550272
C      -0.225980    4.051306   -0.948772
C       0.661184    3.219085   -1.860587
C       1.681307    2.320163   -1.157398
O       1.189050    1.597576   -0.022066
H      -1.989113    1.407959    0.015977
H      -2.116805    3.670064    0.170837
H      -0.276206    5.100227    1.028428
H       0.869982    3.683883    0.987654
H      -0.671593    4.914682   -1.434040
H       0.017178    2.604970   -2.504390
H       1.228312    3.871728   -2.534410
H       2.103509    1.607753   -1.877492
H       2.502495    2.921182   -0.757441
