21

C       0.035968    1.501843   -0.038093
C       0.047121   -0.013647   -0.021827
C       0.527782   -0.709435   -1.295585
C       0.371821   -2.140560   -0.831697
C      -0.796438   -2.197334    0.131883
C       0.629432   -2.181181    0.661128
C       0.692230   -0.747162    1.218201
C      -0.676201   -0.594610    1.944684
C      -1.235991   -0.769008    0.502505
H       1.042122    1.896231   -0.221659
H      -0.614826    1.877443   -0.836201
H      -0.318203    1.930462    0.903736
H      -0.102375   -0.468337   -2.160462
H       1.564631   -0.449442   -1.541721
H       0.615289   -2.987766   -1.461782
H      -1.451842   -3.054093    0.216834
H       1.087624   -3.025323    1.159416
H       1.630826   -0.410071    1.661423
H      -0.943039   -1.352290    2.686726
H      -0.841971    0.401927    2.360880
H      -2.242960   -0.453954    0.223592
