21

C       0.032075    1.360673   -0.132049
O      -0.005307   -0.015143    0.165060
C      -1.287417   -0.602842    0.083682
C      -1.791973   -0.756453   -1.361608
C      -2.979240   -1.683986   -1.442297
C      -3.365228   -2.478479   -0.441954
C      -2.640881   -2.553993    0.880912
C      -1.222597   -1.975960    0.768889
O      -0.352709   -2.871139    0.088919
H       1.046478    1.707440    0.080714
H      -0.192347    1.574912   -1.187355
H      -0.674580    1.931867    0.491808
H      -2.010259    0.014389    0.646780
H      -2.059742    0.219106   -1.783359
H      -0.963112   -1.132296   -1.978039
H      -3.535948   -1.686085   -2.376492
H      -4.238845   -3.113613   -0.566884
H      -3.211594   -2.023220    1.655829
H      -2.566688   -3.594572    1.218135
H      -0.779459   -1.843162    1.760322
H      -0.815722   -3.184732   -0.696058
