19

C      -0.041993    1.392409    0.067102
N      -0.281089   -0.035993    0.016759
C       0.224523   -0.794355    1.153388
C      -0.168242   -0.609423   -1.234241
C       0.020145   -0.080196   -2.482057
C      -0.045560   -1.192962   -3.394260
N       0.017124   -1.087101   -4.791796
C      -0.247319   -2.303519   -2.637596
O      -0.332891   -1.947944   -1.299654
H       1.010687    1.662287   -0.124925
H      -0.666858    1.897718   -0.674420
H      -0.316798    1.764904    1.057444
H      -0.194573   -0.377217    2.073596
H      -0.088816   -1.834450    1.068408
H       1.324572   -0.765570    1.228885
H       0.183592    0.953614   -2.736925
H       0.691910   -0.396329   -5.095415
H       0.224944   -1.969532   -5.241526
H      -0.350162   -3.352785   -2.850243
