15

C       0.079148    1.439171    0.007827
N       0.016279   -0.013129    0.004884
C      -1.117146   -0.592812    0.011646
N      -1.148465   -1.992798    0.008421
C      -2.275191   -2.780827    0.014349
O      -2.276195   -3.990557    0.011225
N      -3.449800   -2.030143    0.024613
N      -3.553197   -0.687011    0.028709
C      -2.461253   -0.002939    0.022641
H       1.128270    1.743865   -0.001065
H      -0.400630    1.885849   -0.874464
H      -0.384173    1.881169    0.901200
H      -0.258800   -2.472871    0.000806
H      -4.317796   -2.542376    0.029416
H      -2.571895    1.073282    0.026111
