17

O      -0.150051    1.326680   -0.014720
N       0.023871   -0.076083    0.013447
C      -1.095669   -0.667401   -0.036069
C      -1.423630   -2.114591    0.075906
C      -2.851724   -1.739696    0.403565
C      -2.569334   -0.258986   -0.015777
C      -3.106823   -0.175870   -1.450778
C      -2.776163   -1.591449   -1.990885
N      -2.560771   -2.466988   -0.810142
H       0.757990    1.640721    0.051641
H      -0.788295   -2.915374    0.432939
H      -3.521778   -2.120540    1.163848
H      -2.829812    0.561089    0.651139
H      -4.186198    0.010791   -1.446324
H      -2.624862    0.617708   -2.026801
H      -3.597597   -2.013233   -2.576016
H      -1.878668   -1.599436   -2.615524
