23

C      -0.139906    1.453636    0.002130
C       0.007456   -0.060401    0.083311
C       1.090021   -0.656463   -0.881502
C       1.888228   -1.148886    0.329589
C       0.831195   -0.564531    1.281464
C       1.048862   -2.040199    1.197357
C       0.116659   -3.189514    0.773358
C       0.963899   -4.141722    1.669152
C       1.661848   -2.906452    2.310179
H       0.833564    1.948060    0.098867
H      -0.577540    1.756343   -0.955648
H      -0.786562    1.833031    0.801493
H      -0.980259   -0.530435   -0.001909
H       0.758783   -1.423556   -1.590210
H       1.604583    0.130081   -1.440273
H       2.969535   -1.140750    0.417954
H       0.968021   -0.023607    2.212983
H      -0.907918   -3.063693    1.138467
H       0.075220   -3.429903   -0.292495
H       0.411535   -4.796521    2.346421
H       1.656206   -4.753493    1.085658
H       2.753545   -2.933051    2.373454
H       1.266010   -2.665313    3.302265
