20

C       0.229925    1.689545    0.044092
C       0.021605    0.169267    0.013899
C       0.614682   -0.447639   -1.258498
C       0.612093   -0.500645    1.264932
C      -0.113481   -0.182069    2.556474
O      -1.264210    0.203337    2.598322
C       0.640017   -0.381560    3.865884
O      -0.185944   -0.167959    4.969663
H       1.298036    1.940068    0.044785
H      -0.218469    2.160653   -0.836279
H      -0.227521    2.137734    0.930263
H      -1.057236   -0.023771    0.027997
H       1.699741   -0.294533   -1.304237
H       0.427920   -1.525775   -1.307895
H       0.179383    0.009109   -2.152952
H       0.571394   -1.595662    1.160906
H       1.677769   -0.259712    1.379491
H       1.067726   -1.397349    3.877321
H       1.500246    0.311363    3.859925
H      -1.030184    0.130040    4.593176
