15

O       0.022235    0.245727   -0.862155
C      -0.005492    1.241945   -0.180097
C      -1.318050    1.832722    0.334665
C      -1.211473    3.092106    1.222171
C      -0.136886    4.035607    0.711220
O      -0.315611    5.191265    0.410574
C       1.219172    3.394125    0.580928
O       1.474106    2.333290    1.499626
C       1.275377    1.973224    0.134729
H      -1.897822    2.063712   -0.567673
H      -1.867256    1.035458    0.844167
H      -2.160791    3.629275    1.255004
H      -0.938547    2.801279    2.241892
H       2.053601    4.054910    0.357589
H       2.155583    1.605053   -0.388202
