18

O       0.376018    0.542866    1.125432
C       0.235286    1.143933    0.093326
C       1.328757    1.984196   -0.555991
N       0.752038    2.998332   -1.408182
C       1.099888    4.191716   -1.206130
O       0.596199    5.185049   -1.964283
C       0.992374    6.489753   -1.603801
C       2.334621    6.994895   -2.059219
C       1.059833    7.473828   -2.722610
H      -0.714246    1.120386   -0.484647
H       1.998857    2.359587    0.233362
H       1.915889    1.286998   -1.174863
H       1.815174    4.521516   -0.438465
H       0.603690    6.810705   -0.640732
H       2.877296    7.671686   -1.408898
H       2.954413    6.305876   -2.621599
H       0.843146    7.089635   -3.712382
H       0.716518    8.484809   -2.537831
