18

O      -0.353476    0.065880    0.366552
C      -0.106965    1.194802    0.034534
C       1.297940    1.761744   -0.109303
N       1.365560    2.725791   -1.181617
C       1.482350    2.247432   -2.573731
C       2.424454    3.446410   -2.883906
C       2.578272    3.549209   -1.337481
C       3.669077    3.147835   -3.671311
O       4.038722    3.763555   -4.636827
H      -0.906667    1.937074   -0.186300
H       1.518018    2.283157    0.834486
H       2.014059    0.925414   -0.198604
H       2.005930    1.279715   -2.656088
H       0.544000    2.191503   -3.132759
H       1.905226    4.299402   -3.320479
H       2.523962    4.547945   -0.894227
H       3.495879    3.049549   -0.984739
H       4.253609    2.279313   -3.283049
