17

O      -0.077387    1.302969   -0.481943
C       0.014887    0.030255    0.157497
C      -1.381057   -0.541690    0.123492
O      -2.328325    0.288827    0.722819
C      -1.816175   -1.396292   -1.056168
C      -1.614346   -1.997087    0.318782
O      -0.476594   -2.799294    0.574624
C      -0.549915   -4.087878    0.170897
O       0.342113   -4.861780    0.341019
H       0.692408    1.823304   -0.236146
H       0.724500   -0.632244   -0.352291
H       0.332618    0.137446    1.203937
H      -2.167656    1.166213    0.350344
H      -2.837072   -1.293024   -1.404562
H      -1.075927   -1.621328   -1.816227
H      -2.491632   -2.273000    0.896686
H      -1.511360   -4.328009   -0.320014
