23

C       0.192146    0.431268   -1.829303
C      -0.124889    0.426917   -0.330663
C      -1.356125   -0.426383    0.066784
C      -1.145374   -1.924163   -0.197786
O      -0.061642   -2.502089    0.505984
C      -0.356282   -2.876861    1.836975
C      -0.326060   -1.722795    2.840349
C      -1.338382   -0.622058    2.631795
C      -1.771862   -0.095813    1.484434
H       1.026223    1.106331   -2.045472
H       0.476121   -0.561232   -2.191934
H      -0.668307    0.769070   -2.418632
H       0.740387    0.060465    0.232084
H      -0.298318    1.456497    0.003423
H      -2.185996   -0.131486   -0.592887
H      -2.075516   -2.467698    0.031097
H      -0.925948   -2.079181   -1.259453
H      -1.337952   -3.376314    1.877518
H       0.405879   -3.612930    2.116158
H      -0.467350   -2.154589    3.839396
H       0.685788   -1.291813    2.843974
H      -1.727063   -0.184456    3.549712
H      -2.473494    0.733616    1.561695
