15

N      -0.027200    1.246288    0.317378
C       0.001466    0.025438    0.010468
O       1.125817   -0.693113   -0.286965
C       0.809935   -1.980218   -0.846583
C      -0.672533   -2.178270   -0.618592
N      -1.017401   -2.071935    0.798540
C      -1.193236   -0.877049   -0.098267
C      -2.497729   -0.365480   -0.368020
C      -3.607374    0.043246   -0.581616
H       0.912647    1.645307    0.292332
H       1.053488   -1.975459   -1.915180
H       1.420195   -2.729607   -0.334803
H      -1.255964   -2.796687   -1.290397
H      -1.942893   -2.469156    0.952009
H      -4.581537    0.421910   -0.769709
