15

C      -0.117412    1.441126   -0.043383
C      -0.124949   -0.074696    0.028211
O      -0.619273   -0.696656    0.948916
N       0.464868   -0.709873   -1.036412
C       0.374978   -2.136337   -1.172559
C       0.312551   -2.533128   -2.627742
O       0.376559   -1.757587   -3.549157
C       0.193383   -3.983050   -2.866216
N       0.097001   -5.121611   -3.041969
H      -1.098895    1.786218   -0.384556
H       0.044119    1.839031    0.959549
H       0.644340    1.834363   -0.721139
H       0.722301   -0.193313   -1.863626
H       1.229072   -2.669121   -0.722468
H      -0.510258   -2.506950   -0.638853
