19

C      -0.010468    1.478369    0.084590
C      -0.057544   -0.017429   -0.088288
C       0.785462   -0.639119   -1.207631
C       0.386805   -2.139160   -1.177515
C      -0.902788   -2.162445   -0.353065
O      -1.859136   -3.151263   -0.572478
C      -0.840200   -1.534638    1.031171
O       0.320446   -0.720477    1.162883
C      -1.416273   -0.760707   -0.115758
H       1.013780    1.802310    0.296150
H      -0.349023    1.981388   -0.827405
H      -0.647747    1.792176    0.915293
H       0.522447   -0.179605   -2.167286
H       1.852905   -0.475663   -1.034179
H       0.185542   -2.534932   -2.176881
H       1.169851   -2.755723   -0.724295
H      -1.546478   -3.965744   -0.163326
H      -1.288724   -1.963963    1.920682
H      -2.406555   -0.383132   -0.329652
