21

C       0.021421    1.589480    0.016338
C       0.027101    0.077089    0.039133
C       1.302087   -0.701366   -0.212514
C       0.680479   -0.681275    1.155105
C       1.310885   -0.128997    2.417881
O       0.256610    0.021641    3.387341
C       0.827712   -1.277703    3.199064
C       0.161403   -1.914493    1.958276
C      -1.336530   -2.170792    2.028832
H       0.959063    1.994185    0.411238
H      -0.099379    1.970552   -1.003702
H      -0.793956    1.991379    0.626989
H      -0.877166   -0.382433   -0.354684
H       1.250718   -1.620311   -0.788621
H       2.217828   -0.135525   -0.362007
H       2.191093    0.491453    2.541931
H       1.247919   -1.766157    4.071090
H       0.705782   -2.816340    1.655804
H      -1.853348   -1.282870    2.402339
H      -1.744893   -2.416822    1.042585
H      -1.561595   -3.009064    2.697310
