15

O       0.003974    0.016083   -0.293933
C       0.031491    1.169039    0.030047
O      -1.106721    1.805695    0.411784
C      -1.042661    3.184938    0.831314
C       0.349677    3.765533    0.650074
C       0.922695    3.370090   -0.731444
C       1.266776    2.055501    0.014884
N       1.280588    2.795172    1.332327
H      -1.783972    3.732121    0.239244
H      -1.329768    3.217269    1.886840
H       0.389075    4.803678    0.987995
H       0.257195    3.334240   -1.599248
H       1.825142    3.935752   -0.975484
H       2.147413    1.468923   -0.241049
H       2.193951    3.240676    1.413589
