18

C      -0.213748    1.524063   -0.016218
C       0.036029    0.037826   -0.030314
O      -1.019030   -0.737043   -0.529113
C       1.372557   -0.536549   -0.337775
O       2.477984    0.244156   -0.604426
C       0.837206   -0.667754    1.105956
C       1.531455    0.094787    2.167688
N       1.383803   -0.373139    3.436888
O       2.214579    1.096586    1.940655
H       0.643551    2.072988    0.371702
H      -0.424541    1.863839   -1.034727
H      -1.080899    1.764213    0.611581
H      -1.800303   -0.555965    0.006639
H       1.364298   -1.457496   -0.914226
H       2.641410    0.786036    0.192230
H       0.437779   -1.638830    1.378851
H       0.896500   -1.227694    3.639330
H       1.912107    0.072338    4.169392
