17

C      -0.140938    1.571507   -0.012425
C      -0.030044    0.047626   -0.009648
C      -1.318791   -0.587151    0.231691
N      -2.336200   -1.101731    0.427309
C       0.706283   -0.629710   -1.187632
N       2.094896   -0.120174   -1.148605
C       1.703055   -1.269499   -0.293827
C       1.102496   -0.607074    0.951002
O       1.924289    0.263853    1.653374
H       0.816449    2.009275   -0.299177
H      -0.903498    1.904596   -0.722154
H      -0.410254    1.936385    0.981824
H       0.262035   -0.993310   -2.105147
H       2.586019   -0.482404   -1.963409
H       2.208855   -2.223384   -0.369484
H       0.657686   -1.305376    1.660396
H       2.463603    0.715009    0.988581
