18

C      -0.892587    1.121138    0.179905
C       0.042354   -0.063301   -0.037392
C       0.989767   -0.081911   -1.278440
C       2.223397   -0.440105   -0.371871
C       2.638051   -1.922204   -0.411499
C       3.374147    0.439094   -0.497739
N       4.277682    1.154029   -0.598492
C       1.289821   -0.134715    0.853591
O       1.504473    0.040242    2.012280
H      -0.352384    2.069227    0.095262
H      -1.699309    1.121486   -0.559200
H      -1.340320    1.076941    1.176631
H      -0.516107   -1.003779    0.048849
H       0.767225   -0.820903   -2.048993
H       1.089535    0.901556   -1.740835
H       3.118585   -2.156654   -1.365171
H       3.336881   -2.146336    0.397871
H       1.760013   -2.565068   -0.299294
