16

N      -0.188227    1.295962   -0.391994
C      -0.136384   -0.053232   -0.129850
C      -1.106380   -1.018722   -0.012485
C      -2.592802   -0.775348   -0.017331
C      -2.958690   -0.147527   -1.348021
O      -2.996242    1.046735   -1.533858
C      -0.390914   -2.258238    0.142995
C       0.927088   -1.954781    0.139226
O       1.097345   -0.600798   -0.037329
H       0.457525    1.866642    0.134943
H      -1.125739    1.671527   -0.443582
H      -3.126101   -1.721931    0.112522
H      -2.897705   -0.088337    0.781461
H      -3.129739   -0.858938   -2.184435
H      -0.823555   -3.239429    0.267362
H       1.833332   -2.523902    0.251238
