16

C      -0.029787    1.437109    0.090387
C       1.428343    1.959277    0.016667
N       2.299945    1.416492    1.062203
C       1.979020    0.089547    1.362354
C       0.911313   -0.582357    0.808354
N       1.014123   -1.830235    1.332607
N       2.082640   -1.923747    2.157424
N       2.664394   -0.752835    2.178500
N      -0.118239   -0.034289    0.038974
H      -0.486937    1.768508    1.030015
H      -0.620907    1.849240   -0.731266
H       1.845077    1.684989   -0.962029
H       1.437819    3.050680    0.077846
H       2.375295    2.005598    1.881434
H       0.431486   -2.637042    1.179708
H      -0.129807   -0.376248   -0.916346
