16

C      -0.001276    1.546838    0.023290
C      -0.020345    0.011470   -0.020203
C       0.797410   -0.566792   -1.196030
O       2.118854   -0.767492   -0.695079
C       2.022022   -1.188205    0.658975
C       0.731904   -0.564247    1.192285
O       0.380046   -0.510384    2.338085
C       0.227337   -1.835007   -1.699364
N      -0.221598   -2.829233   -2.080080
H       1.022812    1.928075   -0.038965
H      -0.575656    1.964788   -0.808191
H      -0.441212    1.895202    0.960876
H      -1.049839   -0.353364   -0.007911
H       0.878943    0.129869   -2.034641
H       1.963025   -2.284089    0.744623
H       2.902016   -0.840212    1.204618
