18

C      -1.064643    0.774656    0.150430
C       0.229519    0.009468    0.115126
N       1.062582   -0.074205    1.081858
O       0.633519    0.624516    2.218783
C       0.556245   -0.743879   -1.125651
C       1.557870   -1.854035   -1.139336
C       0.086268   -2.201830   -1.286706
C      -0.622693   -2.864446   -0.233395
C      -1.239409   -3.422743    0.635839
H      -1.315845    1.155824   -0.843408
H      -1.877041    0.106788    0.461351
H      -1.014716    1.600485    0.860398
H       1.373363    0.497714    2.821678
H       0.453668   -0.156714   -2.034908
H       2.185392   -1.970169   -2.015464
H       2.027580   -2.096321   -0.195274
H      -0.242304   -2.465724   -2.287981
H      -1.770979   -3.919305    1.408986
