19

C      -0.371624    1.559170    0.316992
C       0.197413    0.207149   -0.127795
C       0.954890   -0.477155    0.988303
N       0.172448   -1.229996    1.983598
C       1.129683   -1.947097    1.133479
C       0.537201   -2.946124    0.151253
O       1.284814   -3.054999   -1.046337
C       0.385513   -4.264861    0.804715
N       0.318821   -5.297937    1.318264
H       0.425295    2.240367    0.635924
H      -0.917298    2.044147   -0.497495
H      -1.059893    1.429877    1.157955
H      -0.619915   -0.435422   -0.468618
H       0.872031    0.341160   -0.982072
H       1.789693    0.110197    1.373265
H       0.538253   -1.112342    2.923589
H       2.060719   -2.286961    1.586815
H      -0.457726   -2.603875   -0.142901
H       2.155419   -3.409181   -0.831528
