14

O       0.239112    1.277447   -0.129339
C       0.098916   -0.051679   -0.001997
N       0.220385   -0.900955   -1.016557
N      -0.004936   -2.092484   -0.441106
C       0.094427   -3.320094   -1.188916
C       1.532274   -3.641995   -1.598643
O       1.798816   -4.432283   -2.460799
N      -0.245285   -2.061379    0.861686
C      -0.191959   -0.765855    1.173255
H       0.429994    1.467327   -1.056350
H      -0.273947   -4.119565   -0.540084
H      -0.531345   -3.275777   -2.084079
H       2.309996   -3.096809   -1.020967
H      -0.359420   -0.411926    2.176385
