25

C      -0.194437    1.617762   -0.058003
C       0.037932    0.106629    0.045697
C       0.808780   -0.490611   -1.150267
C       2.266246   -0.080975   -1.155201
C       3.258595   -0.851485   -1.600887
C       3.049209   -2.229557   -2.168451
C       1.561783   -2.527152   -2.416651
C       0.668240   -2.030627   -1.263607
C       0.968959   -2.772790    0.048592
H       0.745696    2.177263   -0.098846
H      -0.764922    1.867272   -0.959778
H      -0.756821    1.988388    0.804839
H       0.568869   -0.118712    0.978326
H      -0.935792   -0.395224    0.116867
H       0.341931   -0.067741   -2.055499
H       2.500506    0.907654   -0.766751
H       4.283228   -0.488241   -1.554481
H       3.613816   -2.338108   -3.103534
H       3.483707   -2.974070   -1.485071
H       1.249064   -2.026772   -3.341739
H       1.413373   -3.601512   -2.575557
H      -0.375439   -2.244523   -1.530655
H       1.961200   -2.525352    0.438124
H       0.239420   -2.528287    0.825605
H       0.929935   -3.856369   -0.107978
