19

C      -0.074591    1.443754   -0.051638
N       0.066623    0.001511    0.089026
C       0.067512   -0.542994    1.347399
O       0.007609    0.099820    2.377477
C       0.049850   -0.799282   -1.116154
C       0.931994   -2.102259   -1.262559
C      -0.334101   -2.846122   -1.694918
N      -1.253662   -2.769245   -0.537257
C      -1.185185   -1.640244   -1.493999
H       0.731018    1.852724   -0.672286
H      -1.035485    1.709904   -0.509816
H      -0.025006    1.880327    0.945378
H       0.126346   -1.640714    1.328473
H       0.289231   -0.127997   -1.944168
H       1.684725   -1.994043   -2.045724
H       1.402237   -2.485899   -0.356171
H      -0.422253   -3.635567   -2.429429
H      -2.090039   -3.304789   -0.766336
H      -2.070176   -1.309106   -2.023877
