19

O       0.195518    1.439464    0.675033
C       0.071905    0.115741    0.240354
C      -0.445261   -0.940469    1.180764
C      -1.173558   -0.506798    2.445558
C      -2.233864    0.526144    2.001295
C      -2.508083    0.237402    0.489941
C      -2.801587    1.442161   -0.283777
C      -3.009079    2.439619   -0.924999
C      -1.272424   -0.514190   -0.020393
H      -0.291709    1.998769    0.057940
H       0.874126   -0.204242   -0.424997
H       0.071036   -1.894543    1.192805
H      -1.649066   -1.386676    2.893729
H      -0.498697   -0.085730    3.197198
H      -3.154703    0.461102    2.586419
H      -1.838677    1.534946    2.107700
H      -3.365204   -0.442522    0.404768
H      -3.218001    3.313649   -1.490841
H      -1.395940   -1.136022   -0.900055
