21

C      -0.762317    1.058985   -0.071835
C       0.260793   -0.075861    0.014481
C       1.273079   -0.085146   -1.165524
C       2.618773   -0.504052   -0.589244
C       2.532609   -0.468127    0.904856
C       1.130829   -0.025716    1.302012
C       2.766491   -1.808660    0.200597
C       1.818704   -2.944459    0.173178
O       2.174676   -4.099527    0.221657
H      -0.264728    2.035773   -0.066672
H      -1.355423    0.990490   -0.989958
H      -1.457135    1.032976    0.774314
H      -0.297703   -1.017376    0.004966
H       0.934533   -0.716851   -1.993499
H       1.381814    0.928800   -1.570486
H       3.513147   -0.185917   -1.113877
H       3.361697   -0.122824    1.512913
H       1.195191    1.006804    1.667622
H       0.697674   -0.617856    2.115000
H       3.790057   -2.165508    0.268228
H       0.739670   -2.697141    0.104697
