20

C      -0.059523    1.610813   -0.035317
C       0.048721    0.087771   -0.013592
N       0.838588   -0.444754   -1.119848
C       1.616289   -1.538774   -0.834110
O       2.253998   -2.184544   -1.637839
C       1.539324   -1.767722    0.678272
C       2.810443   -1.310637    1.439757
C       2.145774    0.080580    1.647357
C       0.774749   -0.521847    1.202333
H       0.924999    2.084805   -0.002748
H      -0.570389    1.953802   -0.941355
H      -0.641759    1.959336    0.823712
H      -0.972789   -0.324122   -0.051367
H       0.677241   -0.186267   -2.081337
H       1.162559   -2.772858    0.879124
H       2.938986   -1.855961    2.377838
H       3.748912   -1.346812    0.882291
H       2.183351    0.497310    2.655792
H       2.526511    0.831113    0.951163
H       0.093307   -0.692618    2.037006
