18

O       0.589685    1.103274   -2.156716
C       0.030076    1.395957   -1.132909
C       0.858483    1.953990    0.058137
C       1.144900    0.920547    1.046780
N       1.369286    0.088578    1.817259
C      -1.478751    1.292069   -0.959939
C      -1.954350    0.733075    0.366864
C      -2.238931    1.639634    1.542466
C      -3.375059    0.972437    0.811114
H       1.798614    2.332630   -0.351235
H       0.323449    2.772887    0.549002
H      -1.877188    2.310676   -1.084354
H      -1.848523    0.703128   -1.804907
H      -1.542779   -0.240306    0.615261
H      -1.977028    1.287316    2.533232
H      -2.118116    2.710106    1.405675
H      -4.005301    1.591957    0.181396
H      -3.899224    0.160122    1.301195
