20

C      -0.090088    1.561235    0.146531
C       0.012012    0.048408    0.048463
C      -1.334680   -0.693211   -0.029230
C      -1.062801   -2.075270    0.588311
C      -0.100415   -1.760209    1.747332
C       0.828794   -0.664151    1.185075
N       2.009870   -1.233313    0.510108
C       1.869480   -0.965882   -0.720880
O       0.795957   -0.269079   -1.150919
H       0.905088    2.014915    0.171424
H      -0.634208    1.974691   -0.708339
H      -0.620913    1.845732    1.060769
H      -2.072554   -0.150987    0.574178
H      -1.708321   -0.727593   -1.055766
H      -1.974432   -2.582608    0.914535
H      -0.571444   -2.725779   -0.143573
H      -0.661425   -1.362634    2.601702
H       0.470611   -2.624069    2.094294
H       1.164976    0.024800    1.965997
H       2.560737   -1.252719   -1.506870
