14

O       0.073754    0.074168    0.046741
C       0.016936    1.265377   -0.031546
C      -1.088985    2.277989    0.012712
C      -0.126412    3.218515    0.786940
C       1.045748    2.413167    0.094804
N       0.826045    3.134744   -1.209791
C      -0.488982    3.544863   -0.631929
C      -1.300236    4.582486   -1.165711
C      -1.963331    5.475725   -1.622256
H      -2.155285    2.156314    0.138523
H      -0.280368    3.693743    1.745417
H       2.062383    2.258070    0.442454
H       1.410597    3.971361   -1.201785
H      -2.554796    6.258425   -2.029508
