22

C      -0.074438    1.502629    0.314784
C      -0.032211   -0.004731   -0.003558
C      -1.449520   -0.591022    0.112569
C       0.559141   -0.188336   -1.415365
C       0.645930   -1.624410   -1.945547
N       1.481106   -2.593013   -1.254655
C       1.539059   -2.751929   -0.007461
O       0.967714   -2.079025    1.032804
C       0.901669   -0.649733    1.030565
H       0.922709    1.953100    0.255862
H      -0.718264    2.028243   -0.397581
H      -0.469545    1.687330    1.319691
H      -2.110247   -0.163386   -0.649190
H      -1.454985   -1.677244   -0.001941
H      -1.881030   -0.363773    1.093490
H      -0.043297    0.386040   -2.131432
H       1.564029    0.254659   -1.433476
H      -0.363419   -2.054344   -2.009156
H       1.007623   -1.575932   -2.978825
H       2.097334   -3.602296    0.388224
H       1.918442   -0.252843    0.902005
H       0.566153   -0.402027    2.042115
