14

C       0.024636    1.442347    0.049132
N      -0.080305   -0.003025    0.101330
C      -1.250551   -0.656639   -0.092431
O      -2.326132   -0.131845   -0.326258
C      -1.153247   -2.144923    0.000312
N      -0.053850   -2.807263    0.245236
O      -0.399608   -4.122291    0.243841
N      -1.739470   -4.284019   -0.006549
C      -2.213337   -3.080466   -0.157709
H       0.711710    1.759060   -0.742663
H      -0.969239    1.838514   -0.160815
H       0.377716    1.846047    1.003898
H       0.741426   -0.557711    0.286763
H      -3.253648   -2.893172   -0.367660
