18

C      -0.025323    1.534039    0.014174
C       0.063176    0.013863    0.037389
C      -1.108884   -0.631336   -0.504865
C      -2.097854   -1.142086   -0.961946
C       1.346187   -0.765866   -0.225308
C       2.577391   -0.035172    0.324143
C       1.928182   -0.051715    1.747452
C       0.712366   -0.781706    1.163834
H       0.867199    2.007090    0.427648
H      -0.152425    1.891553   -1.012246
H      -0.887797    1.873289    0.596025
H      -2.968984   -1.595728   -1.364728
H       1.358714   -1.544383   -0.977955
H       3.475926   -0.654247    0.279303
H       2.810437    0.939208   -0.115514
H       2.488730   -0.679563    2.443320
H       1.740673    0.911935    2.230397
H       0.158815   -1.574354    1.651698
