19

C      -0.145978    1.426433    0.222937
N      -0.049200    0.051697   -0.255705
C      -1.154130   -0.771951   -0.148728
C      -1.285913   -2.124454   -0.013807
C      -2.702591   -2.385260   -0.066454
N      -3.285239   -3.649571   -0.025686
C      -4.722672   -3.710780    0.163865
C      -3.316720   -1.177288   -0.208970
O      -2.355430   -0.174962   -0.269984
H       0.795456    1.937057    0.007393
H      -0.944561    1.941404   -0.314079
H      -0.353602    1.505217    1.300938
H       0.794333   -0.419243    0.036667
H      -0.493119   -2.848243    0.091174
H      -2.779532   -4.288790    0.571060
H      -5.037131   -4.755226    0.227524
H      -5.070975   -3.178821    1.064817
H      -5.222925   -3.262262   -0.701868
H      -4.336194   -0.847704   -0.282300
