14

O      -0.014500    1.432129   -0.074900
C       1.307743    1.895385    0.040127
C       2.098186    1.356376    1.197589
O       1.426777    0.449363    2.035873
C       0.818820   -0.506675    1.203681
C       0.028516    0.032237    0.046078
C       1.445513   -0.484025   -0.187649
C       2.297779    0.757362   -0.191792
H       1.439369    2.905082   -0.329928
H       2.838706    1.950859    1.719101
H       0.531471   -1.408939    1.730087
H      -0.867577   -0.454916   -0.319232
H       1.700390   -1.358619   -0.768798
H       3.203713    0.831120   -0.776134
