18

O       0.032625   -0.004964    0.358190
C      -0.050486    1.150349    0.067221
C      -1.293494    2.023730   -0.056425
C      -0.799887    3.236591   -0.847857
C       0.698070    3.281280   -0.483277
O       1.053204    1.909965   -0.211131
C       1.595806    3.836685   -1.564434
C       3.002851    3.398820   -1.703599
N       1.991260    3.006580   -2.708251
H      -2.105034    1.462470   -0.520765
H      -1.615926    2.292983    0.956277
H      -0.908797    3.066969   -1.923675
H      -1.309246    4.169111   -0.598159
H       0.848500    3.852597    0.443520
H       1.339142    4.861575   -1.829257
H       3.754951    4.097630   -2.057730
H       3.361242    2.636037   -1.019640
H       1.720360    2.042400   -2.521886
