17

O      -0.731074    0.903209    0.571262
C       0.247865    0.922419   -0.132755
C       1.361969    1.896059    0.009848
C       1.474996    2.816221    1.212908
C       2.202507    4.071647    0.721357
C       3.608409    3.960173    0.198080
C       2.451618    3.936269   -0.774449
C       1.952220    2.572514   -1.183826
O       2.606514    1.464655   -0.576613
H       0.397502    0.204312   -0.968990
H       0.460515    3.055708    1.545778
H       1.983588    2.323795    2.048236
H       1.897563    5.023602    1.141241
H       4.214036    4.859550    0.218020
H       4.152508    3.035091    0.344401
H       2.299485    4.754787   -1.466987
H       1.593107    2.400588   -2.195380
