17

C       0.076161    1.443171   -0.158174
C      -0.069458   -0.027812   -0.004784
C      -1.149527   -0.825535    0.279029
C      -0.628462   -2.151932    0.249455
C       0.682068   -2.072543   -0.045344
C       1.353468   -3.398936    0.029282
C       0.053096   -4.275100    0.158656
O      -1.081468   -3.414107    0.488424
O       1.066488   -0.776117   -0.196582
H       0.827783    1.847409    0.529543
H       0.382928    1.716680   -1.174683
H      -0.877583    1.932346    0.052110
H      -2.155064   -0.487883    0.470935
H       1.929257   -3.688888   -0.856101
H       2.014730   -3.505541    0.900230
H      -0.172108   -4.763140   -0.795391
H       0.124636   -5.035191    0.938724
