22

C       0.359058    1.454202    0.066198
C       0.086173   -0.049745    0.003347
C      -1.408457   -0.405651    0.006652
C      -1.622339   -1.917019   -0.139843
N      -1.998272    0.030065    1.276862
C      -3.058328    0.689780    1.278954
C      -3.946660    1.294243    2.347487
C      -4.785464    1.771388    1.144794
O      -3.850849    1.133544    0.224535
H       1.433616    1.662266    0.059679
H      -0.086187    1.974542   -0.789712
H      -0.062808    1.887159    0.978018
H       0.537057   -0.471439   -0.903704
H       0.560083   -0.549553    0.857251
H      -1.888745    0.099352   -0.844616
H      -1.162415   -2.283789   -1.063290
H      -1.176463   -2.449539    0.706288
H      -2.688817   -2.159015   -0.169110
H      -4.425808    0.568790    3.007064
H      -3.476635    2.075312    2.947249
H      -5.785010    1.340256    1.048336
H      -4.822868    2.850985    0.978970
