18

N      -0.100637   -1.152494    0.061049
C      -0.056942    0.002222    0.038270
C       0.000963    1.482719   -0.001730
O      -0.623735    2.037911    1.140085
C       0.392008    2.205019    2.133727
C       1.612975    2.709282    1.356748
C       1.454344    2.014112    0.001393
C       2.573456    1.258067   -0.662816
C       2.081932    2.555204   -1.254890
H      -0.563349    1.814718   -0.879108
H       0.007232    2.908109    2.874605
H       0.600882    1.245986    2.629660
H       1.562967    3.796666    1.241066
H       2.555488    2.460608    1.851067
H       3.537824    1.250280   -0.165945
H       2.330601    0.333594   -1.176167
H       1.509882    2.510775   -2.176419
H       2.708862    3.436427   -1.163017
