17

O      -0.697305    0.899685   -0.637395
C       0.149421    0.984206    0.215454
C       1.383739    1.853592    0.111895
C       1.453327    2.638118   -1.199525
O       2.656468    3.384687   -1.263658
C       2.738679    4.393762   -0.275805
C       2.566691    3.859427    1.146811
O       3.222212    4.272076    2.071452
C       1.464121    2.819387    1.318761
H       0.064100    0.414372    1.169531
H       2.253892    1.181747    0.161337
H       1.458007    1.964347   -2.058174
H       0.574980    3.296172   -1.295265
H       3.719408    4.864791   -0.362524
H       1.965643    5.168300   -0.438731
H       0.519851    3.380012    1.391594
H       1.610978    2.302219    2.270279
