23

C       0.411712    1.487602   -0.630810
C       1.539606    1.578667    0.432595
C       1.407197    0.048834    0.676008
C       0.028657    0.085619   -0.064062
C      -0.067707   -1.134689   -0.990358
C       1.372351   -1.648464   -1.188810
C       2.220038   -1.046290   -2.348095
C       3.178676   -0.391674   -1.315351
C       2.296299   -0.922361   -0.141666
H      -0.362577    2.258571   -0.601746
H       0.798717    1.437113   -1.652332
H       2.510995    1.967030    0.116418
H       1.221345    2.144928    1.312416
H       1.392383   -0.252856    1.726538
H      -0.829094    0.159735    0.609693
H      -0.675048   -1.910304   -0.509320
H      -0.556188   -0.899968   -1.943711
H       1.411733   -2.740068   -1.161663
H       2.686836   -1.784769   -3.004909
H       1.675255   -0.338897   -2.980006
H       4.185291   -0.817170   -1.318289
H       3.281344    0.693006   -1.389659
H       2.846915   -1.583656    0.530926
