19

C      -0.424754    1.480804   -0.048896
C       0.071160    0.038879   -0.078967
C       0.945698   -0.340710   -1.284518
O       1.915450    0.679491   -1.445959
C       1.552494   -1.674994   -0.836555
N       1.810037   -1.493755    0.596555
C       0.957072   -0.417935    1.121151
C       1.780673    0.670350    1.689684
N       2.403576    1.508932    2.183835
H       0.410436    2.182030   -0.080700
H      -1.070947    1.676764   -0.910135
H      -1.006263    1.677093    0.857316
H      -0.789603   -0.640820   -0.090702
H       0.345951   -0.460679   -2.198421
H       2.643121    0.337341   -1.973568
H       0.842172   -2.488491   -1.052801
H       2.480548   -1.901980   -1.377954
H       1.730318   -2.346200    1.130699
H       0.316220   -0.770268    1.938528
