18

C      -0.077395    1.395505    0.057165
O       0.142640    0.008021   -0.047174
C       0.691026   -0.594111    1.116088
C      -0.341818   -0.775544    2.235707
C       1.262642   -1.907750    0.677436
C       1.294176   -2.456345   -0.559883
O       1.920578   -3.672085   -0.467684
C       2.235529   -3.784892    0.839500
N       1.876547   -2.782122    1.571499
H       0.844521    1.933074    0.328889
H      -0.409328    1.741169   -0.924926
H      -0.853107    1.646546    0.794381
H       1.515248    0.033261    1.498336
H      -1.200921   -1.339804    1.861359
H       0.108756   -1.329822    3.062663
H      -0.690546    0.188615    2.615840
H       0.951833   -2.153386   -1.531816
H       2.747871   -4.684862    1.141500
