16

O      -0.059911    1.340960   -0.068600
C       0.093684   -0.025375   -0.042762
C       1.150964   -0.863152   -0.757005
C       0.196321   -2.058802   -0.419214
N       0.349136   -2.152204    1.084866
C      -0.448183   -0.901357    1.099707
C      -1.001837   -1.034382   -0.297405
C       0.263609   -3.317537   -1.208236
O      -0.381029   -3.533938   -2.203389
H       0.519925    1.728431    0.597069
H       1.161634   -0.654487   -1.828964
H       2.162759   -0.931197   -0.347442
H      -0.274830   -2.898173    1.399564
H      -0.890532   -0.479045    1.992857
H      -1.980827   -0.963473   -0.749698
H       0.985278   -4.063815   -0.802148
