16

O       0.098096    1.376278   -0.449401
C       0.019726    0.087972    0.121276
C      -1.388853   -0.496502    0.041051
C      -1.857071   -1.121617   -1.253358
C      -1.590678   -2.021781   -0.068066
C      -0.459093   -2.901158   -0.038261
C       0.477305   -3.655002   -0.008677
C      -2.357771    0.225035    0.826092
N      -3.102156    0.838600    1.465713
H      -0.402597    1.984179    0.105903
H       0.696753   -0.551439   -0.449434
H       0.356910    0.080301    1.167318
H      -2.888435   -0.977764   -1.551066
H      -1.136641   -1.130231   -2.062620
H      -2.471026   -2.394792    0.446143
H       1.304352   -4.321121    0.016610
