17

N       0.318468    1.123265    0.389227
C       0.039634   -0.209328   -0.089461
C      -1.448597   -0.619116   -0.279751
O      -1.156687   -1.030082   -1.653740
C       0.144862   -0.568326   -1.569166
N       1.028825   -0.447382   -2.448394
C      -1.982107   -1.735832    0.571154
C      -2.478791   -2.990765   -0.006045
O      -1.191758   -2.921345    0.616687
H       1.313246    1.229424    0.558817
H       0.074999    1.813335   -0.315798
H       0.565051   -0.939845    0.530637
H      -2.135306    0.234436   -0.277313
H       0.701072   -0.766714   -3.361816
H      -2.371835   -1.409139    1.536694
H      -3.227729   -3.569204    0.532153
H      -2.459919   -3.114499   -1.085588
