17

N      -0.091455    1.483156    0.134006
C      -0.049182    0.070383    0.087655
C       0.751130   -0.818518    1.050209
C      -0.454170   -1.824461    1.090581
C      -1.187100   -0.914419    0.100441
O      -2.529136   -0.618112    0.118713
C      -0.348700   -0.801492   -1.178380
C      -0.950987   -0.121825   -2.281741
N      -1.437152    0.433121   -3.174771
H       0.613020    1.909947   -0.459862
H      -0.998039    1.828363   -0.164859
H       1.701266   -1.206938    0.673965
H       0.914657   -0.322768    2.008111
H      -0.268800   -2.854172    0.770301
H      -0.945889   -1.831451    2.065095
H      -2.988455   -1.147819   -0.543050
H       0.322067   -1.612370   -1.454249
