17

O      -0.009025    0.008358    0.107954
C      -0.043164    1.205434    0.034759
C      -1.275313    2.114744   -0.037889
C      -0.637785    3.511374    0.060184
C      -0.341860    3.926753    1.503273
O       0.391487    2.907702    2.174060
C       1.551980    2.504499    1.452010
C       1.163915    2.164977    0.008973
O       0.631235    3.339402   -0.605697
H      -1.772690    1.978847   -1.003188
H      -1.982307    1.864888    0.755953
H      -1.187149    4.292075   -0.469907
H       0.225559    4.870044    1.490613
H      -1.261119    4.074161    2.078390
H       2.305624    3.306927    1.441051
H       1.955726    1.632467    1.973585
H       2.002831    1.789139   -0.579310
