14

O       0.133686    0.038051    0.054021
C       0.055069    1.220663    0.031379
O      -1.079356    1.933156    0.263537
C      -0.847271    3.317159    0.010163
C       0.690365    3.421648   -0.038085
C       1.295353    3.978765    1.261921
C       2.754799    4.023666    1.233379
N       3.907800    4.077257    1.201130
O       1.093572    2.066367   -0.228311
H      -1.310790    3.594922   -0.941261
H      -1.296214    3.903939    0.814977
H       1.043021    4.001685   -0.893207
H       0.915423    4.994423    1.423635
H       0.965824    3.367789    2.110096
