13

C       0.005247    1.499000    0.010051
C       0.013186    0.047992    0.002171
C       0.017244   -1.161936   -0.004374
C       0.021010   -2.521376   -0.011720
C       0.022611   -3.730035   -0.018235
C       0.042683   -5.187766   -0.026266
C      -1.299933   -5.786118   -0.016574
N      -2.347786   -6.270498   -0.009103
H       1.025355    1.898829    0.002493
H      -0.516227    1.895381   -0.868242
H      -0.499377    1.885858    0.902321
H       0.576332   -5.559662   -0.911205
H       0.593211   -5.569101    0.844199
