19

C      -0.162519    1.649075    0.107294
N       1.146681    1.008789   -0.069196
C      -0.068103    0.174875   -0.066727
C      -0.297854   -0.737884    1.112434
C      -0.383001   -2.217190    1.181651
C       0.649139   -3.055789    0.406371
C       1.636350   -2.236682   -0.380173
C       1.711095   -2.250099    1.118915
N       0.695782   -1.473621    1.935546
H      -0.334168    2.056668    1.100573
H      -0.580696    2.238717   -0.704553
H       1.477700    1.142424   -1.021362
H      -0.415738   -0.207396   -1.024217
H      -0.996572   -0.288477    1.819351
H      -1.188049   -2.704238    1.725940
H       0.553583   -4.128048    0.301019
H       2.417588   -2.844277   -0.830424
H       1.374966   -1.372156   -0.969419
H       2.596443   -2.564546    1.655723
