18

N       0.011662   -1.043732   -0.574882
C       0.000097    0.072018   -0.269002
C      -0.011838    1.472732    0.108979
C      -0.413033    2.437371   -1.064446
C       1.057985    2.913364   -1.195210
C       1.399565    2.189767    0.140060
C       1.303642    3.028476    1.382975
C       0.191333    2.807648    2.082931
C      -0.692616    1.743608    1.476502
H      -0.847132    1.954077   -1.940473
H      -1.095279    3.216092   -0.716936
H       1.569931    2.467204   -2.051009
H       1.220981    3.993103   -1.212467
H       2.289320    1.554487    0.118693
H       2.078277    3.738618    1.652386
H      -0.071556    3.308809    3.008003
H      -1.730253    2.072703    1.342854
H      -0.728842    0.844023    2.103137
