17

C       0.017617    1.525919    0.023201
C      -0.090823    0.037984    0.100481
O       1.063870   -0.741384   -0.231460
C       0.483414   -0.939212    1.078449
C       1.300155   -0.730220    2.224725
C       1.966086   -0.573658    3.214163
C      -0.732077   -1.835748    0.938061
C      -1.975157   -1.054947    1.276658
C      -1.322494   -0.836187   -0.064701
H       0.947821    1.863956    0.486170
H       0.013694    1.857310   -1.021197
H      -0.827107    2.000632    0.531476
H       2.561516   -0.435012    4.082392
H      -0.709957   -2.915142    0.863050
H      -2.902215   -1.620135    1.263039
H      -1.940227   -0.280041    2.037320
H      -1.812395   -1.065595   -1.002605
