12

F       0.098920    0.034949    0.002334
C      -0.036320    1.355009    0.010892
C      -1.223546    1.989318    0.030245
C      -1.281556    3.455733    0.038428
O      -2.331811    4.085141    0.056208
C       0.041763    4.101106    0.023920
C       1.184766    3.385805    0.004737
N       1.159587    2.008757   -0.002039
H      -2.143427    1.420718    0.039861
H       0.074124    5.183120    0.029100
H       2.173541    3.826528   -0.006374
H       2.006275    1.464186   -0.016169
