16

C      -0.080736    1.460912   -0.061880
O      -0.025027    0.048045    0.070533
C      -1.247910   -0.576079   -0.000300
O      -1.786514   -0.503036   -1.347580
C      -1.620730   -1.743713   -1.873185
N      -1.246734   -2.700757   -1.134491
C      -1.110313   -2.115204    0.222758
C       0.107884   -2.526772    0.905144
C       1.083827   -2.899002    1.496310
H       0.934696    1.830067    0.090461
H      -0.431899    1.755131   -1.057195
H      -0.743603    1.902321    0.696380
H      -1.987356   -0.093613    0.650992
H      -1.846680   -1.820346   -2.930962
H      -1.971745   -2.458655    0.810900
H       1.958930   -3.218248    2.006090
