19

C      -0.009276    1.519543   -0.042060
C      -0.052869   -0.000436    0.130091
C      -1.452819   -0.573197   -0.084745
N      -1.453376   -2.016584    0.095736
C      -2.633336   -2.713070    0.047384
N      -3.827283   -2.143953    0.184756
N      -4.652677   -3.233679    0.126289
C      -3.936728   -4.354301   -0.050672
N      -2.649293   -4.075256   -0.108044
H       1.002540    1.905659    0.112044
H      -0.329699    1.815917   -1.046814
H      -0.669304    2.018029    0.676084
H       0.641963   -0.469553   -0.580559
H       0.294139   -0.279618    1.131767
H      -2.151526   -0.144972    0.641610
H      -1.829475   -0.285872   -1.080887
H      -0.690401   -2.516246   -0.337080
H      -5.647399   -3.110367    0.203892
H      -4.380877   -5.335376   -0.131286
