20

C       0.043134    1.566513    0.049807
C      -0.202209    0.077209   -0.213836
C       0.714168   -0.492001   -1.291079
C       2.201829   -0.710212   -0.921331
O       2.108943   -2.128944   -1.181498
C       0.723089   -2.007301   -1.505452
C      -0.268212   -3.049253   -1.100169
C       0.093684   -2.844040   -2.567136
H       1.071872    1.748336    0.380045
H      -0.123113    2.161626   -0.855010
H      -0.625705    1.947265    0.827462
H      -0.065143   -0.494333    0.712683
H      -1.247381   -0.073056   -0.514252
H       0.588657    0.065487   -2.225295
H       2.941900   -0.226540   -1.568529
H       2.453052   -0.506623    0.127917
H       0.124298   -3.933552   -0.609448
H      -1.249540   -2.737174   -0.757447
H      -0.639620   -2.386982   -3.224607
H       0.719158   -3.596055   -3.036343
