19

C       0.022944    1.564673   -0.030010
C       0.006199    0.036553   -0.001441
O      -1.335218   -0.444336    0.124354
C       0.688325   -0.631916   -1.219261
C       1.212607   -1.978858   -0.692625
O       1.365492   -2.979306   -1.346553
C       1.433373   -1.836438    0.778431
C       2.215726   -0.594660    1.195812
C       0.725623   -0.563080    1.209003
H       1.045031    1.954568   -0.050123
H      -0.495149    1.942744   -0.919616
H      -0.484121    1.962254    0.854045
H      -1.844904   -0.098333   -0.616160
H      -0.003258   -0.791029   -2.049218
H       1.527637   -0.039292   -1.601831
H       1.491261   -2.730686    1.384839
H       2.721187   -0.660570    2.152438
H       2.768773   -0.043643    0.442370
H       0.196186   -0.514574    2.153222
