18

C       0.268102    1.594790    0.220979
C       0.043593    0.087163    0.064262
O       0.651093   -0.511669    1.212772
C      -1.433711   -0.309295   -0.070824
C      -2.272549    0.089415    1.158733
C      -3.623262   -0.463739    1.108207
N      -4.687957   -0.909886    1.057085
C       0.837259   -0.372463   -1.166110
O       0.360004   -0.745810   -2.204053
H       1.337700    1.822603    0.196668
H      -0.228051    2.148781   -0.580184
H      -0.116609    1.933743    1.186287
H       0.552659   -1.469047    1.147780
H      -1.847823    0.134266   -0.979843
H      -1.494021   -1.394078   -0.214737
H      -1.778558   -0.261829    2.070942
H      -2.351794    1.178392    1.242037
H       1.937484   -0.342111   -0.994471
