18

N       0.134209    0.946756   -0.760326
C       0.093118   -0.143895    0.041980
O       1.002108   -0.530341    0.745856
C      -1.233737   -0.922143   -0.026620
O      -2.269598   -0.065190   -0.453621
C      -3.518452   -0.749610   -0.540086
C      -3.399834   -1.966458   -1.459316
C      -2.205457   -2.807415   -1.003207
O      -1.040410   -1.993828   -0.910604
H       0.953918    1.529968   -0.745319
H      -0.700846    1.251547   -1.230717
H      -1.460744   -1.305578    0.984154
H      -3.831122   -1.064007    0.469113
H      -4.245025   -0.022003   -0.909632
H      -4.322514   -2.556559   -1.433523
H      -3.235292   -1.631583   -2.488720
H      -2.414984   -3.269043   -0.023753
H      -1.969298   -3.604305   -1.712128
