18

C      -0.001022    1.533946    0.097891
C      -0.004270    0.022196   -0.019054
N      -1.165247   -0.697696    0.440998
C       0.669591   -0.671851   -1.186939
N       1.435246    0.091646   -2.136824
C       1.320269   -0.716280    0.208466
O       2.478426    0.033896    0.350026
C       1.328041   -1.947996    0.959213
N       1.351410   -2.925897    1.576215
H       0.954114    1.972769   -0.193404
H      -0.792086    1.967671   -0.525829
H      -0.197972    1.825000    1.135027
H      -1.309897   -0.547808    1.435407
H      -2.000331   -0.376648   -0.040650
H       0.176262   -1.580689   -1.518550
H       1.834328   -0.510336   -2.847879
H       0.876595    0.798474   -2.601985
H       2.694511    0.320995   -0.557498
