20

C      -0.168375    1.609671   -0.027986
C       0.043031    0.089504    0.000251
C       0.768044   -0.411760   -1.251498
O       2.183649   -0.166842   -1.204094
C       2.864110   -0.861523   -0.232861
N       4.017200   -1.343267   -0.435335
C       2.198624   -0.948481    1.090958
C       1.938056    0.353097    1.829155
C       0.785583   -0.412453    1.246809
H       0.776793    2.140313   -0.175141
H      -0.835841    1.889486   -0.849885
H      -0.613325    1.964427    0.906242
H      -0.944784   -0.387076   -0.003735
H       0.600948   -1.488574   -1.385633
H       0.418412    0.102518   -2.150744
H       4.294337   -1.171518   -1.404481
H       2.512871   -1.798460    1.682700
H       2.073659    0.346201    2.904480
H       2.252173    1.269487    1.343634
H       0.167861   -0.941584    1.965068
