21

C      -0.536246    1.620563    0.089252
C      -0.532279    0.091805    0.110127
C       0.675997   -0.503371    0.863840
C       0.683859   -0.147151    2.279849
C       0.656019    0.151069    3.444708
C       0.792812   -2.037597    0.645531
O       0.136518   -2.586380   -0.205992
C       1.794957   -2.783863    1.509255
C       2.012293   -4.229960    1.070772
H       0.357596    2.014219   -0.408364
H      -1.409486    1.996514   -0.452050
H      -0.562918    2.032994    1.102303
H      -1.450008   -0.284665    0.574046
H      -0.514666   -0.310549   -0.905878
H       1.596743   -0.095148    0.412854
H       0.641884    0.415526    4.473173
H       2.734553   -2.215191    1.515663
H       1.432975   -2.729900    2.543665
H       2.400211   -4.277783    0.049551
H       2.723794   -4.729737    1.733825
H       1.072211   -4.786425    1.086659
