19

O       0.072401    1.411030   -0.179774
C       0.034038    0.006927   -0.011882
C       0.694135   -0.533406    1.297755
C      -0.431815   -1.325388    2.003922
C      -1.282404   -1.817224    0.819171
C      -1.437096   -0.478293    0.083268
O      -2.262521    0.373275    0.872926
C      -1.727221    0.648133    2.148466
O      -1.258898   -0.498016    2.825954
H       0.991800    1.671818   -0.290392
H       0.486306   -0.490181   -0.882977
H       1.529227   -1.203874    1.073748
H       1.075289    0.279563    1.921737
H      -0.059861   -2.112794    2.661876
H      -0.742403   -2.553564    0.212972
H      -2.240856   -2.233532    1.132678
H      -1.920498   -0.533135   -0.893479
H      -0.924383    1.392106    2.052926
H      -2.543275    1.054325    2.750519
