18

C       0.083520    1.536256    0.370761
C       0.025660    0.075577   -0.110882
C      -1.354691   -0.479304   -0.149431
C      -2.162800   -0.894244   -1.170523
O      -1.820939   -0.887791   -2.481596
C      -2.801704   -1.383290   -3.376381
C      -3.363504   -1.299709   -0.524629
N      -3.287694   -1.141762    0.776754
O      -2.024339   -0.625022    1.014754
H       1.118366    1.889657    0.396272
H      -0.485900    2.190600   -0.295821
H      -0.335791    1.630395    1.375993
H       0.439886   -0.009238   -1.120185
H       0.646891   -0.549330    0.542869
H      -2.371499   -1.313247   -4.376409
H      -3.048040   -2.431588   -3.161663
H      -3.720851   -0.783863   -3.336155
H      -4.271026   -1.698209   -0.953243
