17

O       0.030139    0.096334    0.645637
C      -0.051704    1.222355    0.240789
C      -1.185626    2.233976   -0.026463
C      -0.042687    3.274324   -0.188490
C       0.307026    4.237492    0.972139
C       1.367638    3.487798    1.820445
C       2.030427    2.494643    0.833976
N       0.941794    2.160303   -0.079855
H      -1.799600    2.045192   -0.909443
H      -1.835740    2.377271    0.840249
H      -0.020134    3.776550   -1.158495
H       0.728517    5.161496    0.564708
H      -0.569840    4.518505    1.561467
H       2.085090    4.166640    2.288119
H       0.882472    2.920450    2.621625
H       2.856085    2.957760    0.282387
H       2.400784    1.585953    1.312927
