17

O       0.078728    0.022502    0.209890
C       0.007749    1.218574    0.109009
C      -1.174284    2.087895    0.567094
C      -0.935791    3.456878   -0.091918
C       0.586209    3.543713   -0.208173
C       1.285203    4.779158   -0.615623
N       1.368154    4.306701    0.782965
C       1.075030    2.136335   -0.504408
H      -2.126850    1.611987    0.325153
H      -1.115766    2.159209    1.660859
H      -1.386957    3.476479   -1.091611
H      -1.356978    4.295854    0.470149
H       2.217095    4.724676   -1.172282
H       0.682611    5.658383   -0.833131
H       0.747232    4.864607    1.365448
H       2.065245    1.927991   -0.094557
H       1.109027    1.936320   -1.583672
