17

C       0.041576    1.501563    0.151197
C       0.022636   -0.018194   -0.019634
C       0.679484   -0.477055   -1.331327
O       2.021219   -0.031202   -1.435281
C       0.622271   -1.991659   -1.470805
C       1.589392   -2.726287   -2.289718
O       1.722708   -2.680165   -0.858463
H       1.066143    1.878106    0.098545
H      -0.535502    1.994560   -0.639410
H      -0.388077    1.797595    1.112714
H       0.546899   -0.500634    0.816154
H      -1.009974   -0.390741    0.005733
H       0.143153   -0.025672   -2.177424
H       2.537067   -0.637373   -0.884809
H      -0.350448   -2.447372   -1.282298
H       1.324545   -3.701262   -2.694010
H       2.345226   -2.168824   -2.836764
