13

O       0.218735    1.278435   -0.220727
C       0.104521   -0.061665    0.097010
C      -0.012255   -0.321181    1.604404
O      -1.256171   -1.052959    1.436739
C      -1.348692   -0.727872    0.043672
C      -2.424176    0.225110   -0.255154
N      -3.246933    0.999774   -0.492094
C      -1.453725   -1.919783   -0.803100
N      -1.467142   -2.855066   -1.480870
H       0.362677    1.382068   -1.167743
H       0.830976   -0.696783   -0.419357
H       0.760800   -0.941247    2.063727
H      -0.158711    0.600192    2.176120
