16

N      -0.029481   -1.130749    0.097446
C       0.010524    0.023526    0.049979
C       0.028130    1.469610   -0.039298
C      -1.183536    2.113978   -0.721699
O      -0.843013    3.198392   -1.553115
C       0.021212    4.133075   -0.925170
C       1.414253    3.524394   -0.737255
C       1.324739    2.189756   -0.036652
O       0.513679    2.136250    1.136905
H      -1.682529    1.379503   -1.358657
H      -1.885115    2.422283    0.069925
H       0.065391    5.002389   -1.584995
H      -0.390512    4.450995    0.043645
H       1.886873    3.369699   -1.713793
H       2.056273    4.201110   -0.161317
H       2.237199    1.597913    0.023259
