20

C      -0.173226    1.541691    0.189512
C      -0.094064    0.016670    0.052617
C      -1.500462   -0.601784   -0.072751
O      -2.332052   -0.353558    1.046335
C       0.746967   -0.456947   -1.128322
N       1.161215    0.505058   -2.153503
C       2.202239   -0.151952   -1.329652
C       2.988241    0.651378   -0.433484
C       3.691478    1.270053    0.320944
H       0.817323    1.990511    0.273212
H      -0.665096    1.988215   -0.680212
H      -0.733277    1.807086    1.092303
H       0.353813   -0.394734    0.967478
H      -1.970652   -0.252504   -1.007519
H      -1.418587   -1.692689   -0.139283
H      -2.553076    0.582363    1.049597
H       0.471249   -1.452170   -1.480757
H       1.145104    0.086919   -3.079715
H       2.773921   -0.946319   -1.807030
H       4.302531    1.830007    0.984816
