22

C      -0.182051    1.611398   -0.010841
C       0.045439    0.108215    0.017670
C       1.095557   -0.575597   -0.886395
C       2.506864    0.041241   -0.869049
C       2.741433   -0.691504    0.471350
C       4.057445   -1.395061    0.690711
C       2.074783    0.023990    1.668120
C       0.738678   -0.589858    1.209218
N       1.469320   -1.541081    0.248928
H       0.743489    2.172757    0.150605
H      -0.595017    1.926359   -0.975595
H      -0.891777    1.914498    0.766919
H      -0.909082   -0.404753   -0.148371
H       0.745874   -0.995682   -1.832341
H       3.132106   -0.374641   -1.664445
H       2.605043    1.130925   -0.886092
H       4.864505   -0.665629    0.833300
H       4.015995   -2.035281    1.577922
H       4.313638   -2.023173   -0.168698
H       2.402457   -0.403770    2.620061
H       2.159327    1.113130    1.731094
H       0.096563   -1.021628    1.980468
