13

O      -0.673837    0.750828    0.668394
C       0.206886    0.899366   -0.135134
C       1.326375    1.933813    0.016833
C       1.436522    2.534712    1.435748
O       2.750904    2.105769    1.886423
C       3.280255    1.428444    0.848176
N       2.622238    1.279022   -0.231430
C       4.603900    0.911284    1.058095
N       5.668896    0.498345    1.227551
H       0.278290    0.293206   -1.060404
H       1.157271    2.692479   -0.759310
H       1.414551    3.625370    1.457836
H       0.681790    2.128410    2.111992
