14

O      -0.050238    1.382424   -0.066602
C       0.000708   -0.016256   -0.013015
C      -0.480056   -0.694820    1.269022
C      -1.357010   -0.681056    0.051634
C       1.050577   -0.641957   -0.759368
C       1.957342   -1.158450   -1.373198
C       3.034150   -1.747608   -2.117924
O       3.224925   -2.938581   -2.227898
H       0.755012    1.725466    0.337683
H      -0.005163   -1.623040    1.562926
H      -0.727907   -0.014581    2.075711
H      -2.192318    0.009135    0.037174
H      -1.496029   -1.599211   -0.505064
H       3.702707   -1.006829   -2.602868
