17

O       0.207492    1.232412    0.322036
C       0.038200   -0.130112    0.102665
C      -1.377429   -0.682927    0.037665
C      -2.564709    0.259925    0.117966
C      -3.134483    0.473598   -1.294501
C      -2.085564    0.990387   -2.259570
O      -2.275460    1.814966   -3.106357
O      -0.817143    0.481339   -2.119379
C      -0.543692   -0.569104   -1.214868
H       0.349519    1.652143   -0.535898
H       0.806289   -0.750910    0.557673
H      -1.521675   -1.689016    0.417725
H      -3.336098   -0.146290    0.776620
H      -2.246469    1.218417    0.539178
H      -3.513337   -0.478947   -1.686892
H      -3.959573    1.187618   -1.317010
H      -0.166126   -1.447883   -1.726494
