21

O      -0.016189   -1.503715   -1.253531
C      -0.173416   -1.091032   -2.605566
C      -1.651219   -0.932458   -2.952293
O      -2.205349   -0.078241   -1.957830
C      -3.487432   -0.406776   -1.481676
C      -3.600046   -1.764148   -0.799650
O      -2.590027   -1.993917    0.159501
C      -4.230926    0.772608   -0.940831
C      -4.674494    0.130398   -2.242261
H      -0.392491   -0.786745   -0.726001
H       0.355334   -0.143509   -2.780995
H       0.286514   -1.857957   -3.235798
H      -1.777137   -0.496851   -3.953979
H      -2.137734   -1.914109   -2.948924
H      -4.561252   -1.804906   -0.275975
H      -3.623526   -2.569130   -1.551263
H      -1.767059   -2.177082   -0.315350
H      -4.839954    0.632672   -0.054744
H      -3.732290    1.732511   -1.006797
H      -4.469760    0.672853   -3.158116
H      -5.592456   -0.448732   -2.253092
