23

C       0.014118    1.540505    0.032549
C       0.007917    0.039334   -0.044509
C       0.041063   -0.631594   -1.195581
C       0.062375   -2.130966   -1.259209
O       0.291068   -2.751428   -0.009537
C      -0.427953   -2.190663    1.098040
C      -1.946169   -2.326570    0.891349
C       0.018296   -3.018223    2.302914
C      -0.019155   -0.712272    1.266682
H       0.867180    1.901757    0.621906
H       0.070305    1.996998   -0.959493
H      -0.888031    1.916134    0.532745
H       0.047170   -0.106154   -2.148040
H      -0.873482   -2.500083   -1.717752
H       0.876195   -2.472225   -1.911850
H      -2.198286   -3.362155    0.644344
H      -2.481280   -2.052065    1.805748
H      -2.306558   -1.678444    0.087892
H       1.108253   -2.999147    2.389012
H      -0.413613   -2.621061    3.226742
H      -0.297578   -4.059438    2.190596
H       0.972481   -0.658335    1.737609
H      -0.708711   -0.218757    1.964730
