23

C       0.114861    1.548897    0.104028
C       0.222157    0.022113    0.099159
C       0.450396   -0.551440   -1.313661
C       0.555855   -2.048090   -1.351139
C      -0.313155   -2.897350   -1.909033
C       0.141420   -4.333501   -1.846998
O       0.480740   -4.841635   -3.141386
C       1.335003   -4.279087   -0.854703
C       1.735583   -2.787937   -0.746859
H       1.029758    2.011786   -0.282555
H      -0.716956    1.889698   -0.522444
H      -0.050977    1.932892    1.115315
H       1.040865   -0.289202    0.758931
H      -0.692007   -0.417350    0.516411
H      -0.366858   -0.225254   -1.968037
H       1.372409   -0.111353   -1.721938
H      -1.217831   -2.606667   -2.433490
H      -0.638125   -5.017648   -1.495810
H       1.010283   -4.165744   -3.578965
H       1.015257   -4.649441    0.124041
H       2.144550   -4.926909   -1.199399
H       2.656659   -2.550584   -1.298001
H       1.926703   -2.489915    0.290097
