20

C       0.527296    1.386898    0.114230
O       0.881564    0.031071    0.231769
C      -0.035728   -0.709790    1.018538
C       0.367758   -2.145129    1.020132
C       0.127340   -3.090151    2.168573
C       1.540256   -2.829341    1.716628
C       1.874532   -3.558575    0.383226
N       0.700977   -4.372680   -0.035718
C       0.738765   -2.909529   -0.291469
H       0.507063    1.892227    1.093482
H       1.279248    1.870005   -0.514700
H      -0.462491    1.514444   -0.353532
H      -0.061891   -0.321251    2.051187
H      -1.055096   -0.593657    0.606185
H      -0.139800   -2.603170    3.102008
H      -0.336938   -4.052591    1.997476
H       2.290995   -2.380842    2.353943
H       2.869694   -3.779036    0.020671
H       0.957825   -4.831643   -0.909340
H       0.658308   -2.498078   -1.288570
