21

O      -0.099132    1.492761    0.126922
C       0.041187    0.087651    0.268755
C      -1.333256   -0.541883    0.085660
C      -1.312437   -2.070795    0.213215
C      -2.703567   -2.676418    0.094396
C      -3.459740   -2.859898   -1.256989
C      -2.538163   -4.042139   -1.640903
C      -2.972400   -4.187524   -0.162403
O      -4.350430   -3.827368   -0.572981
H       0.765184    1.896040    0.248494
H       0.740674   -0.321089   -0.479568
H       0.440315   -0.176083    1.262355
H      -2.014506   -0.109894    0.828702
H      -1.720532   -0.249171   -0.897785
H      -0.629806   -2.490764   -0.534198
H      -0.898165   -2.348497    1.192373
H      -3.376375   -2.285964    0.863978
H      -3.932091   -2.114104   -1.897492
H      -2.989772   -4.766618   -2.319283
H      -1.489228   -3.847888   -1.872108
H      -2.857354   -5.036196    0.513497
