19

C      -0.102717    1.591797   -0.069972
C       0.000466    0.062836   -0.051158
C      -1.295576   -0.540113    0.218518
C      -2.364719   -1.039722    0.453847
C       0.714377   -0.627518   -1.238333
C       2.149449   -0.201855   -1.340004
C       1.772896   -1.230593   -0.311868
C       1.132317   -0.570570    0.897366
O       1.987868    0.313758    1.579215
H       0.879047    2.052714   -0.190696
H      -0.749778    1.920276   -0.888663
H      -0.536615    1.958560    0.865802
H      -3.310909   -1.477205    0.655466
H       0.188170   -1.105377   -2.054714
H       2.678177   -0.595054   -2.202323
H       2.475021    0.786242   -1.033868
H       2.194494   -2.227603   -0.314324
H       0.679670   -1.299332    1.578185
H       1.527709    0.641380    2.358804
