18

O      -0.152223    1.370534   -0.017084
C       0.024619   -0.017212   -0.060380
C      -0.396737   -0.752775    1.194916
C      -1.276648   -0.766377   -0.044192
C      -1.265243   -2.286762   -0.274505
O      -2.004042   -2.697415   -1.376163
C      -1.477449   -2.762020    1.215099
N      -0.079469   -2.195527    1.430770
C       0.199878   -2.698312    0.025545
H       0.589147    1.748018    0.468386
H       0.862613   -0.338420   -0.673955
H      -0.616238   -0.173459    2.083556
H      -2.208457   -0.223928   -0.144190
H      -1.963035   -3.657772   -1.431604
H      -2.262059   -2.291123    1.811579
H      -1.476580   -3.847994    1.350400
H       0.333438   -3.782840    0.059926
H       1.043444   -2.251490   -0.498754
