23

C       0.023211    1.586857    0.031876
C       0.033289    0.056994    0.012165
C       0.711515   -0.495750   -1.254772
C       1.033209   -1.965165   -1.163719
C       0.974231   -2.687615   -0.039942
C       1.282157   -4.160006   -0.009211
C       0.581390   -2.056043    1.280732
C       0.720281   -0.529104    1.260172
O       2.091142   -0.138031    1.337745
H       1.043583    1.968906    0.130896
H      -0.411387    1.994669   -0.886976
H      -0.560931    1.968203    0.876368
H      -1.004060   -0.306056    0.024224
H       0.070649   -0.311143   -2.126550
H       1.632159    0.073745   -1.456538
H       1.333987   -2.453714   -2.089146
H       1.531445   -4.544042   -1.002139
H       2.121664   -4.376831    0.663971
H       0.426793   -4.733212    0.372191
H      -0.451012   -2.337529    1.534263
H       1.208325   -2.454866    2.088406
H       0.260095   -0.107155    2.160930
H       2.570525   -0.654759    0.680054
