19

C      -0.051919    1.539670   -0.060732
C      -0.009984    0.012009    0.004075
C       0.993971   -0.585009   -1.061958
N       2.331578   -0.680518   -0.394655
C       2.031936   -0.716686    0.836007
N       2.579805   -0.450420    2.091750
C       1.267803    0.168297    2.516294
C       0.604922   -0.574238    1.290027
O      -0.102301   -1.744180    1.643621
H       0.950774    1.971960    0.028941
H      -0.464351    1.868364   -1.019654
H      -0.677575    1.959287    0.733594
H      -1.017299   -0.392639   -0.125524
H       0.667101   -1.567732   -1.422220
H       1.086449    0.071131   -1.932866
H       3.455323    0.053987    2.173946
H       0.924811   -0.160426    3.500134
H       1.266013    1.260333    2.452268
H       0.479249   -2.300732    2.174531
