23

C       0.158765    1.580478    0.192006
C       0.212229    0.068405   -0.011236
C       0.893632   -0.351995   -1.308417
O       1.452895    0.448044   -2.024890
C       0.826979   -1.836098   -1.656548
C       1.722564   -2.236225   -2.817008
C       3.261993   -2.292600   -2.607221
C       3.295800   -3.564069   -3.497566
C       1.771238   -3.728547   -3.250331
H       1.163220    2.009834    0.173123
H      -0.413709    2.062282   -0.605240
H      -0.308660    1.826965    1.149467
H       0.754963   -0.419279    0.811427
H      -0.791632   -0.376854    0.011546
H       1.060394   -2.422852   -0.756811
H      -0.225483   -2.067193   -1.882891
H       1.499158   -1.598311   -3.676944
H       3.844375   -1.423917   -2.919155
H       3.514260   -2.525586   -1.566386
H       3.511404   -3.320507   -4.541841
H       3.950531   -4.383499   -3.192004
H       1.573003   -4.396371   -2.404683
H       1.141795   -4.037939   -4.088928
