21

C       0.214144    1.535129    0.028758
C       0.103741    0.004528    0.057099
C       1.002633   -0.564395    1.178838
C      -1.364525   -0.413480    0.296288
C       0.577522   -0.562533   -1.290354
O       1.019335    0.134533   -2.173809
C       0.463581   -2.059437   -1.508836
C       0.114373   -2.542498   -2.861712
O       1.442472   -2.625691   -2.380583
H       1.243198    1.852608   -0.155435
H      -0.404856    1.961076   -0.765123
H      -0.113744    1.952478    0.986306
H       0.692160   -0.150574    2.143951
H       0.940151   -1.653938    1.252131
H       2.051325   -0.295028    1.019322
H      -2.019689   -0.029945   -0.492444
H      -1.488690   -1.499501    0.342820
H      -1.713357   -0.002712    1.249445
H       0.207994   -2.684339   -0.656847
H      -0.417296   -3.487605   -2.964410
H      -0.048223   -1.801014   -3.641161
