17

O       0.238520    1.404179   -0.122293
C       0.105870    0.000234   -0.084322
C       0.682752   -0.566885    1.236855
C      -0.202233   -1.479975    1.676293
C      -1.443389   -1.214128    2.495847
C      -2.202576   -0.395634    1.348571
C      -2.355738   -1.893167    1.524759
C      -1.142681   -1.989026    0.552988
C      -1.361732   -0.548630    0.027661
H      -0.152878    1.753865    0.686966
H       0.550311   -0.351728   -1.023916
H       1.252810    0.105331    1.872267
H      -1.606508   -0.947495    3.533121
H      -2.909234    0.382888    1.611671
H      -3.234346   -2.506712    1.661440
H      -0.875940   -2.831759   -0.080095
H      -1.979221   -0.401258   -0.863961
