19

C      -0.158736    1.562216    0.399514
C       0.011916    0.052523    0.129715
C       0.833708   -0.595802    1.263314
C      -1.345052   -0.642564   -0.036039
O      -2.102065   -0.522013    1.175110
C      -3.363332   -0.055111    1.101648
O      -4.063146    0.064780    2.060862
C       0.794288   -0.101385   -1.166128
O       0.388135   -0.643436   -2.162176
H       0.813785    2.062422    0.445619
H      -0.750864    2.045908   -0.384413
H      -0.661782    1.717054    1.357374
H       0.309010   -0.479964    2.214626
H       0.985090   -1.665228    1.084742
H       1.816627   -0.122489    1.352921
H      -1.898079   -0.209078   -0.876790
H      -1.206372   -1.707687   -0.241624
H      -3.665420    0.200232    0.067061
H       1.815449    0.344705   -1.128921
