16

O      -0.193811    1.444052   -0.015870
C      -0.028013    0.050539   -0.052272
C      -1.371641   -0.643573    0.015669
O      -2.076786   -0.651551   -1.228270
C      -1.352929   -1.825669   -0.850097
C      -0.010074   -1.938408   -1.545105
C       0.623421   -0.524875   -1.364292
C       0.401054    0.347884   -2.515747
N       0.297499    1.031772   -3.441381
H       0.660371    1.871917   -0.135654
H       0.576557   -0.301318    0.800718
H      -1.981387   -0.554935    0.910160
H      -1.951786   -2.710784   -0.653433
H       0.605602   -2.692630   -1.043457
H      -0.096047   -2.220641   -2.597060
H       1.707438   -0.606738   -1.238480
