18

C      -0.290606    1.456604    0.025731
C       0.066034   -0.022794   -0.028707
N       0.927191   -0.460866   -1.146406
C       1.993961   -1.039083   -0.316714
C       1.188482   -0.527757    0.902156
O       1.378491   -0.507630    2.078290
C       0.501636   -0.739012   -2.415404
C       1.506320   -1.460393   -3.297089
O      -0.607980   -0.406952   -2.792839
H       0.605054    2.080618   -0.044010
H      -0.955814    1.701481   -0.805081
H      -0.799424    1.680212    0.967892
H      -0.843488   -0.635118    0.047414
H       2.085318   -2.131885   -0.362765
H       2.986137   -0.590428   -0.441678
H       2.492299   -0.987890   -3.255354
H       1.624656   -2.500162   -2.971520
H       1.136957   -1.453986   -4.322158
