21

C      -0.128993    1.564042   -0.041535
C       0.012667    0.038919    0.016796
C       0.802630   -0.558850   -1.173843
C       1.570150   -1.781867   -0.592989
C       2.858177   -2.027514   -1.232793
C       3.922239   -2.219888   -1.759487
C       1.647950   -1.452152    0.901880
C       2.536301   -2.221668    1.824639
C       0.791046   -0.477257    1.205437
H       0.854755    2.045903   -0.050762
H      -0.666731    1.875316   -0.943486
H      -0.682170    1.944484    0.823796
H      -1.001648   -0.390744    0.040361
H       0.171752   -0.828340   -2.024525
H       1.535117    0.174972   -1.525084
H       0.961578   -2.693075   -0.710815
H       4.859164   -2.392212   -2.228213
H       3.582305   -2.159173    1.503932
H       2.461945   -1.852668    2.850899
H       2.276177   -3.288454    1.825889
H       0.623270   -0.104150    2.211596
