18

N      -0.065989    1.328072    0.084349
C       0.059650    0.003209   -0.202570
O       1.101965   -0.507380   -0.578714
C      -1.224597   -0.776440   -0.035553
O      -2.366802    0.002493    0.237188
C      -1.391375   -2.052181   -0.830799
C      -1.209865   -2.123284    0.659970
C       0.023605   -2.728053    1.279921
O      -0.201908   -4.132568    1.363350
H       0.770524    1.887266    0.104860
H      -0.905036    1.656715    0.532028
H      -2.710472    0.323534   -0.604509
H      -2.377209   -2.248691   -1.237527
H      -0.550020   -2.334067   -1.453519
H      -2.120743   -2.293740    1.226559
H       0.901470   -2.489792    0.670013
H       0.180838   -2.296282    2.282155
H       0.612675   -4.541243    1.670062
