16

C       0.089502    1.548819    0.011843
C       0.013033    0.017577    0.001866
C       0.692918   -0.624995   -1.213289
O       2.092045   -0.360340   -1.338149
C       1.694294   -1.609024   -0.769142
C       1.694544   -1.618929    0.751062
O       2.092493   -0.377765    1.336154
C       0.693315   -0.640770    1.208300
H       1.135397    1.863175    0.012808
H      -0.401415    1.971918   -0.869886
H      -0.399435    1.960249    0.900176
H      -1.037807   -0.302974   -0.000069
H       0.152381   -0.700685   -2.155199
H       1.966600   -2.500659   -1.326627
H       1.967015   -2.517756    1.296793
H       0.153060   -0.728680    2.149311
