18

C      -0.023143    1.472391    0.008922
N       0.013487    0.017851   -0.021039
C       0.676107   -0.501593   -1.210883
C       0.394789   -2.001672   -1.357604
C       0.767259   -2.788958   -0.117683
O       1.171533   -3.922911   -0.131359
C       0.597293   -2.044904    1.241159
O       0.522323   -2.664444    2.269783
C       0.601251   -0.521950    1.198043
H       0.982950    1.930870    0.048745
H      -0.534056    1.846866   -0.882899
H      -0.581427    1.808642    0.887794
H       0.285944    0.027305   -2.085437
H       1.769526   -0.318955   -1.188614
H      -0.686587   -2.134397   -1.499888
H       0.902561   -2.438840   -2.221491
H       1.662903   -0.210597    1.324486
H       0.059143   -0.157212    2.075084
