18

O      -0.000432   -0.042464    0.031957
C      -0.008318    1.170281    0.007314
N      -1.122736    1.962965    0.007825
C      -0.893637    3.406119    0.024557
C      -0.100075    3.761380    1.300333
C       1.223186    2.943676    1.271458
C       1.223733    2.087874   -0.008827
O       1.164153    2.947569   -1.156213
C      -0.024481    3.738069   -1.196088
H      -2.041106    1.547751    0.010106
H      -1.849755    3.930249   -0.024137
H       0.097306    4.837414    1.324177
H      -0.700578    3.517501    2.180390
H       2.096273    3.601427    1.245535
H       1.320098    2.300517    2.151044
H       2.124998    1.486239   -0.118250
H      -0.565439    3.516973   -2.124896
H       0.247278    4.802549   -1.196115
