15

C       0.043320    1.579465   -0.069379
C       0.066055    0.064565   -0.088526
C       0.701078   -0.706758   -1.263111
C       1.255990   -1.679913   -0.151187
C       2.354062   -0.679946    0.123008
N       1.040555   -0.632860    0.852282
C       2.145898   -0.156397   -1.268412
O       2.868762    0.284854   -2.115340
H       1.021413    2.006973   -0.309490
H      -0.677976    1.956407   -0.802128
H      -0.255621    1.940555    0.919335
H      -0.917277   -0.341770    0.166131
H       0.192705   -0.942262   -2.194243
H       1.238031   -2.748358    0.009450
H       3.252672   -0.779611    0.715385
