18

C       0.075361    1.536097   -0.193281
C       0.054669    0.032043   -0.116302
C       0.532085   -1.001991   -1.136099
N       0.035767   -1.929339   -0.033526
C       0.554158   -0.922940    1.022198
C      -0.798022   -0.974325    1.765526
C      -1.204889    0.112140    2.630276
C      -1.552447    0.994977    3.369970
C      -1.118384   -0.939174    0.255659
H       1.100961    1.902274   -0.314911
H      -0.507092    1.886627   -1.052706
H      -0.343759    1.984874    0.710709
H      -0.027343   -1.101149   -2.073031
H       1.608488   -1.085282   -1.323322
H       1.561908   -1.014087    1.432111
H      -0.996479   -1.951412    2.219238
H      -1.858057    1.776712    4.020442
H      -2.085168   -1.049490   -0.239371
