25

C      -0.026333    1.430816    0.089521
O      -0.140928    0.028400    0.050786
C      -1.437796   -0.551057    0.099790
C      -2.361964   -0.049275    1.261669
C      -3.239969    0.715437    0.233910
C      -2.475769    0.020438   -0.925804
C      -1.208688   -2.069373    0.039483
C      -0.539739   -2.486542   -1.277795
C      -0.408169   -2.567136    1.251153
H       1.042253    1.656301    0.041106
H      -0.519341    1.920659   -0.761897
H      -0.426788    1.863966    1.016846
H      -2.886790   -0.875711    1.748231
H      -1.878680    0.544399    2.040734
H      -4.314370    0.525503    0.283754
H      -3.086475    1.797478    0.260408
H      -2.073891    0.663979   -1.711491
H      -3.050933   -0.775162   -1.406832
H      -2.206931   -2.526807    0.076839
H       0.454081   -2.039190   -1.361693
H      -0.432561   -3.574856   -1.329289
H      -1.125544   -2.168348   -2.146530
H      -0.899706   -2.306688    2.194379
H      -0.299826   -3.656164    1.222045
H       0.590466   -2.122735    1.259812
