17

C      -0.169931    1.395113    0.027158
N      -0.034501   -0.041602    0.128115
C       0.752308   -0.638008    1.056676
O       1.423999   -0.070374    1.895794
C       0.711289   -2.146814    0.941816
N       0.024019   -2.786437    0.081997
C       0.278757   -4.214076    0.328925
C       1.267359   -4.225533    1.525587
O       1.466446   -2.823319    1.827118
H       0.453318    1.840514    0.803828
H       0.164050    1.758249   -0.951230
H      -1.208935    1.708176    0.179146
H      -0.531123   -0.656607   -0.499797
H      -0.662238   -4.727226    0.552486
H       0.696932   -4.678843   -0.569906
H       0.869025   -4.711127    2.420079
H       2.240562   -4.662300    1.287471
