15

C      -0.023937    1.515985   -0.066775
C       1.533441    1.334640    0.001445
C       1.137470    0.157352    0.960691
N      -0.106429   -0.031201    0.049017
C       0.627610   -0.324395   -1.168432
C       1.701938    0.512508   -1.276135
N       2.383805    0.241292   -2.405786
N       1.764930   -0.749868   -3.016783
N       0.675492   -1.102757   -2.252159
H      -0.470738    1.969750    0.821843
H      -0.462892    1.920525   -0.980214
H       2.225393    2.129192    0.269944
H       1.790375   -0.715382    1.013197
H       0.812205    0.468950    1.956826
H       0.080280   -1.851019   -2.568907
