15

C      -0.186668    1.567586    0.095015
C       0.001709    0.056947    0.032890
C      -1.267192   -0.691523   -0.355775
O       1.128858   -0.310735   -0.826303
C       1.897723   -0.891702    0.242296
C       0.772595   -0.549291    1.223233
O       0.568748   -0.684707    2.390753
H       0.746751    2.070173    0.362166
H      -0.511422    1.942321   -0.880781
H      -0.946571    1.825743    0.838629
H      -1.610416   -0.355868   -1.339443
H      -1.089670   -1.769215   -0.403744
H      -2.059662   -0.501110    0.374151
H       2.090493   -1.963700    0.105561
H       2.849895   -0.375973    0.422368
