17

C      -0.084231    1.548981   -0.041906
C       0.064122    0.066039   -0.001436
C       0.594847   -1.007904   -0.886428
C       1.381903   -1.688795    0.242177
C       0.412961   -0.974210    1.202291
O       0.735121   -0.715797    2.505816
C      -0.979948   -1.511624    0.880198
O      -1.864817   -1.822429    1.639237
C      -0.898540   -1.046142   -0.526383
H       0.856418    2.042814    0.224478
H      -0.374258    1.889960   -1.040951
H      -0.849691    1.887821    0.664293
H       0.875434   -0.921790   -1.928373
H       1.414270   -2.783110    0.286578
H       2.392119   -1.277134    0.314446
H      -0.068756   -0.868982    3.025018
H      -1.685466   -0.933720   -1.258718
