22

C      -0.199113    1.500822    0.074812
C       0.015052   -0.019177   -0.024232
C       0.466554   -0.494975   -1.419046
C       1.792806    0.061990   -1.950023
C       3.029778   -0.329573   -1.133800
C       3.076666    0.245968    0.291902
C       2.183177   -0.436084    1.323477
O       2.645939   -0.882623    2.360090
N       0.842032   -0.549583    1.063336
H       0.730471    2.060504   -0.053383
H      -0.901948    1.838397   -0.694184
H      -0.611559    1.760734    1.053739
H      -0.963394   -0.484611    0.139697
H       0.519467   -1.590434   -1.395978
H      -0.331646   -0.235145   -2.125265
H       1.922324   -0.296478   -2.978088
H       1.738780    1.156290   -2.020622
H       3.113757   -1.423083   -1.087237
H       3.920846    0.022295   -1.665982
H       4.084571    0.154076    0.700998
H       2.842171    1.318251    0.263136
H       0.353183   -0.983251    1.833066
