13

O       0.025117   -0.069199    0.023910
C      -0.009972    1.126566    0.028465
N      -1.087208    1.977105    0.057479
C      -0.764778    3.402832    0.053686
C       0.732804    3.341160    0.017882
C       1.918721    4.022326   -0.009606
N       2.932427    3.093932   -0.037592
N       2.442763    1.887899   -0.029221
N       1.103194    2.037739    0.004674
H      -2.022678    1.608657    0.078576
H      -1.183947    3.912016   -0.822561
H      -1.142445    3.907190    0.951272
H       2.126642    5.079099   -0.011124
