16

O       0.119219    1.398798   -0.193454
C       0.031697    0.002617   -0.032711
C       0.693934   -0.555908    1.209272
C      -0.015658   -1.534521    1.763677
C      -1.295480   -1.812294    1.010283
C      -1.435307   -0.570166    0.075570
C      -2.328137    0.429641    0.649842
C      -3.035124    1.272312    1.138178
H      -0.468615    1.801398    0.459337
H       0.508924   -0.410211   -0.931182
H       1.660579   -0.193384    1.539095
H       0.278519   -2.113412    2.632209
H      -1.208503   -2.730564    0.414352
H      -2.164899   -1.939674    1.661676
H      -1.811342   -0.850295   -0.912873
H      -3.684886    1.999859    1.558390
