21

C      -0.456152    1.514706    0.050745
C      -0.001774    0.048404    0.012764
C       0.770461   -0.376957   -1.279500
C       2.253748   -0.545873   -0.848956
C       2.884638    0.834051   -0.724418
C       2.840566    1.269332    0.535391
C       2.289134    0.222200    1.445848
C       0.909846   -0.400204    1.163699
C       2.156041   -1.036589    0.618291
H       0.384832    2.204425   -0.044571
H      -1.158336    1.723304   -0.764146
H      -0.969732    1.735432    0.992929
H      -0.910130   -0.562462    0.082431
H       0.384788   -1.336787   -1.641674
H       0.652232    0.346138   -2.093504
H       2.802280   -1.219845   -1.513069
H       3.180610    1.418415   -1.588795
H       3.137237    2.253744    0.879257
H       2.622417    0.179219    2.477838
H       0.426910   -0.831124    2.035654
H       2.534741   -2.002661    0.928989
