17

N       0.074763    1.486435   -0.050058
C       0.048714    0.028901   -0.028637
C       0.875624   -0.452179    1.167780
O       0.216822   -0.003163    2.334391
C       0.988965   -0.142698    3.525287
C       0.256717    0.428111    4.644448
C      -0.326753    0.892924    5.584953
C       1.022257   -1.924497    1.166051
N       1.141439   -3.073843    1.174838
H      -0.425186    1.830394   -0.862871
H      -0.411116    1.837473    0.769305
H      -0.952548   -0.423594    0.051646
H       0.512590   -0.354172   -0.943269
H       1.880220   -0.006887    1.098146
H       1.202402   -1.205224    3.716789
H       1.957166    0.369562    3.406555
H      -0.846109    1.302400    6.416101
