18

C      -0.245837    1.350790   -0.211357
C       1.191839    1.078891    0.140187
C       0.203519   -0.066535    0.065336
C      -0.229875   -0.756397    1.293341
C      -1.614449   -1.310724    1.689661
C      -0.915911   -2.377342    2.566837
C       0.421806   -1.850959    2.192116
N      -0.267401   -1.320019    3.422187
C      -0.932638   -0.266527    2.537511
H      -0.863607    1.842578    0.532164
H      -0.489458    1.612551   -1.234743
H       1.938813    1.158669   -0.641587
H       1.535245    1.377893    1.124341
H       0.295401   -0.707131   -0.808941
H      -2.540119   -1.281764    1.132909
H      -1.227890   -3.334300    2.967804
H       1.411817   -2.291017    2.230528
H      -1.236746    0.717746    2.872986
