18

O       0.165660    1.352827    0.372050
C       0.103424   -0.006954   -0.013474
C      -1.310800   -0.520156   -0.088399
C      -2.069507   -0.960437    1.130890
C      -1.660304   -1.969036    0.071553
C      -2.701153   -2.545891   -0.873549
N      -3.387861   -1.584475   -1.726941
C      -3.007999   -0.382863   -1.756747
O      -2.023372    0.239173   -1.055095
H      -0.382363    1.842819   -0.250954
H       0.596906   -0.171607   -0.984824
H       0.654432   -0.575742    0.741917
H      -1.549502   -0.958553    2.082298
H      -3.119535   -0.690764    1.183790
H      -0.843738   -2.639469    0.325148
H      -2.217271   -3.275214   -1.535601
H      -3.463870   -3.106928   -0.318323
H      -3.491702    0.338299   -2.412598
