23

C      -0.035293    1.510029   -0.381137
C      -0.133416    0.018165   -0.053848
C       0.888456   -0.428547    1.001604
C       0.774040   -1.913176    1.336989
C       1.682912   -2.610210    2.419433
C       2.318951   -1.677225    3.445851
C       0.432766   -3.376283    2.962019
C      -0.436770   -2.410389    2.143218
O      -1.586834   -2.076716    2.200218
H       0.959020    1.769787   -0.762283
H      -0.768798    1.799962   -1.139818
H      -0.218188    2.123139    0.508373
H      -1.139285   -0.223158    0.306031
H       0.016018   -0.569706   -0.969644
H       1.905489   -0.215643    0.644468
H       0.750593    0.169180    1.911115
H       0.817686   -2.501272    0.409100
H       2.447036   -3.259106    1.985136
H       1.569822   -1.045374    3.936463
H       2.823627   -2.254329    4.227643
H       3.060643   -1.017031    2.985243
H       0.351304   -4.403523    2.592190
H       0.265514   -3.379418    4.042660
