19

C       0.013641    1.483600    0.061129
C       0.007951   -0.012620   -0.015105
C      -0.942053   -0.896299    0.811523
C       0.555592   -1.046559    0.948410
C       0.449121   -2.078581   -0.225974
C      -1.094366   -2.182818   -0.017411
C      -1.718103   -1.959753   -1.396388
O      -0.763412   -1.154995   -2.113620
C       0.314366   -0.905463   -1.229760
H       0.981770    1.896209   -0.245169
H      -0.753920    1.913306   -0.592982
H      -0.186470    1.830789    1.080760
H      -1.645128   -0.455861    1.507766
H       1.215725   -0.956612    1.797604
H       1.077260   -2.944781   -0.417361
H      -1.458645   -3.051118    0.532873
H      -1.876799   -2.897063   -1.947082
H      -2.677986   -1.430457   -1.336271
H       1.195632   -0.623272   -1.808749
