19

O      -0.045257    1.422276    0.254870
C      -0.072736    0.008670    0.365238
C      -1.274261   -0.490975   -0.431917
C      -1.380160   -1.993845   -0.421981
O      -1.814154   -2.606044    0.816128
C      -2.656238   -2.696979   -0.310198
C      -4.100230   -2.207480   -0.375219
O      -4.487234   -3.427973   -1.046537
C      -3.164804   -3.998241   -0.922708
H       0.671984    1.753464    0.802932
H       0.851407   -0.442624   -0.032868
H      -0.173110   -0.315820    1.411554
H      -2.184353   -0.046729   -0.016021
H      -1.183232   -0.140295   -1.467421
H      -0.553833   -2.528735   -0.895760
H      -4.581516   -2.096507    0.604739
H      -4.298975   -1.317752   -0.984835
H      -2.745680   -4.290282   -1.893062
H      -3.139571   -4.855314   -0.237473
