16

C       0.042979    1.520187    0.365423
C      -0.057030    0.029671   -0.016566
C       0.807778   -0.776786    0.952520
O       1.864095   -1.275131    0.673442
C      -1.468477   -0.478623    0.016482
N      -1.909569   -1.370069   -0.878920
N      -3.160405   -1.589571   -0.502905
N      -3.590348   -0.926880    0.559830
C      -2.522928   -0.209364    0.912878
H       1.073749    1.870620    0.266482
H      -0.595588    2.123723   -0.284894
H      -0.272322    1.690616    1.400524
H       0.353209   -0.131249   -1.016530
H       0.381149   -0.851308    1.980706
H      -3.760002   -2.220764   -1.010162
H      -2.562842    0.452715    1.762760
