17

O       0.052017    0.115979    0.188345
C       0.051678    1.305169    0.084175
O      -1.074792    2.091096    0.128863
C      -0.501802    3.405069   -0.052362
C       0.710756    3.374798    0.973235
C       1.197741    2.308727   -0.102063
C       2.224638    1.799206   -1.149179
C       1.130528    2.215761   -2.235292
C       0.599748    3.221196   -1.155672
H      -1.291954    4.153522   -0.045012
H       1.311173    4.284609    0.981214
H       0.472871    3.044413    1.987403
H       3.118068    2.422164   -1.223806
H       2.500810    0.745010   -1.088932
H       1.486481    2.644545   -3.173692
H       0.453599    1.385941   -2.447258
H       1.177842    4.146836   -1.223664
