16

C       0.093913    1.562570    0.096427
C       0.093296    0.066713    0.022425
C      -0.898476   -0.875839    0.624886
C       0.577149   -0.972166    1.028837
C       1.359395   -1.611861   -0.099691
O       2.133538   -2.506910   -0.223282
N       0.842110   -0.652352   -1.033003
C       0.669612   -0.641865   -2.402422
O       1.193732   -1.399479   -3.177032
H       1.109868    1.957182    0.000862
H      -0.521172    2.003029   -0.695547
H      -0.318798    1.891412    1.054229
H      -1.541565   -0.468096    1.399641
H      -1.348843   -1.659317    0.023575
H       0.913402   -0.845419    2.047618
H      -0.006361    0.182146   -2.711740
