21

C      -0.131563    1.235066    0.567408
C       1.177833    1.693830   -0.145077
C       1.444203    0.232045   -0.603781
C       0.129473   -0.228617    0.111672
C      -0.455702   -0.692582   -1.260047
C      -1.545213    0.141363   -1.935412
O      -0.880467    1.275042   -2.489911
C       0.377025    0.814968   -2.981467
C       0.860801   -0.231258   -1.976481
H      -0.099892    1.350123    1.653842
H      -1.050367    1.699548    0.205121
H       1.046943    2.434414   -0.936028
H       1.941359    2.065226    0.543164
H       2.423504   -0.181563   -0.357402
H       0.121676   -0.988053    0.895253
H      -0.674369   -1.761570   -1.297095
H      -2.032246   -0.445281   -2.731997
H      -2.321745    0.510742   -1.259478
H       0.255221    0.356320   -3.976809
H       1.031038    1.685647   -3.084008
H       1.449903   -1.017179   -2.453147
