17

C       0.077454    1.759984    0.108915
C      -0.041259    0.250462   -0.058591
C       0.562858   -0.511400    1.140670
C       0.606854   -1.954559    0.947350
C       0.644606   -3.141517    0.761896
O      -1.432809   -0.054873   -0.171925
C      -1.809417   -1.018312   -1.037912
N      -3.024651   -1.348271   -1.118720
H       1.127342    2.058705    0.179938
H      -0.374604    2.270884   -0.744474
H      -0.440799    2.086197    1.015619
H       0.475018   -0.065867   -0.974835
H       1.576553   -0.131992    1.319628
H      -0.029741   -0.267845    2.030805
H       0.673620   -4.192966    0.616051
H      -0.977459   -1.429720   -1.623465
H      -3.138508   -2.069430   -1.827845
