17

C       0.006643    1.492638    0.357163
C       0.028372    0.039136   -0.134929
C      -1.350046   -0.561566   -0.232935
O      -2.007769   -0.887264    1.015164
C      -1.711614   -1.947696    0.085008
C      -2.905768   -2.308347   -0.797552
O      -3.429340   -3.390789   -0.892240
C      -3.240009   -1.061431   -1.549739
C      -2.357564   -0.097305   -1.261195
H       1.023235    1.887154    0.438265
H      -0.547204    2.144981   -0.326040
H      -0.465529    1.557123    1.341500
H       0.510188   -0.021335   -1.118729
H       0.622172   -0.574156    0.550338
H      -1.020931   -2.714096    0.422777
H      -4.095555   -0.995641   -2.209317
H      -2.357491    0.907688   -1.666580
