25

C      -2.599877    1.453449   -1.301147
C      -2.600705   -0.066078   -1.111884
C      -1.536010   -0.545792   -0.114182
C      -1.421975   -2.082380    0.001515
C      -0.480290   -2.568584   -1.107998
C      -1.265812   -2.693121    1.448177
C      -2.751070   -2.301060    1.720830
C      -2.730788   -2.918539    0.292306
C      -1.834015   -4.035730    0.905568
H      -3.376142    1.769705   -2.005221
H      -2.780818    1.971149   -0.352340
H      -1.636403    1.804018   -1.687913
H      -3.590572   -0.389977   -0.766235
H      -2.447721   -0.552712   -2.083526
H      -0.557979   -0.156679   -0.427216
H      -1.731340   -0.081135    0.856939
H       0.541548   -2.221141   -0.914964
H      -0.442833   -3.651307   -1.230351
H      -0.782619   -2.147711   -2.073255
H      -0.416685   -2.563048    2.123581
H      -3.261557   -2.892853    2.484954
H      -3.002554   -1.246391    1.822612
H      -3.584410   -3.057384   -0.374788
H      -1.211289   -4.632750    0.241710
H      -2.323212   -4.674313    1.645751
