22

C      -0.150502    1.521517    0.010667
C       0.059957    0.008993    0.042614
C       1.000463   -0.558813   -1.075039
C       2.035027   -1.311524   -0.207121
C       3.144537   -2.051297   -0.918195
C       1.107357   -1.999083    0.845179
C       0.827238   -0.531428    1.272543
C       2.314153   -0.256480    0.908317
H       0.797236    2.065843    0.079933
H      -0.638822    1.830323   -0.920176
H      -0.784042    1.849851    0.842299
H      -0.922537   -0.475110   -0.011004
H       0.480262   -1.226175   -1.770015
H       1.469309    0.236306   -1.666230
H       3.746822   -1.368849   -1.529719
H       3.817185   -2.543473   -0.207387
H       2.742169   -2.822383   -1.585900
H       0.267103   -2.599532    0.479937
H       1.673433   -2.560138    1.593682
H       0.421543   -0.286574    2.255490
H       3.005196   -0.631288    1.668161
H       2.609314    0.752673    0.605324
