17

C       0.440261    1.229688    0.174490
O       0.262748   -0.186250    0.116199
C      -1.016391   -0.632953    0.116476
C      -1.009717   -2.145297   -0.024553
C      -0.891691   -2.551595   -1.485678
O      -1.657185   -3.290492   -2.045837
N      -1.988271    0.169258    0.193719
C      -3.363440   -0.277848    0.145885
H       1.518615    1.391870    0.146241
H      -0.045597    1.718757   -0.674451
H       0.014295    1.637098    1.095307
H      -0.120716   -2.516893    0.497552
H      -1.898949   -2.607565    0.402507
H      -0.023131   -2.100738   -2.013181
H      -3.506822   -1.343153   -0.077011
H      -3.853106   -0.055687    1.101601
H      -3.896258    0.296110   -0.620329
