17

C       0.819742    1.342814   -0.588775
C      -0.116790    0.467782    0.243462
O      -0.765401   -0.534367   -0.556919
C       0.561957   -0.193501    1.400244
C       0.231917   -1.271311    2.171728
N      -0.907900   -2.055799    2.138728
N       1.220618   -1.478358    3.122968
C       2.077509   -0.533306    2.898610
O       1.767439    0.289562    1.884730
H       1.656856    0.755085   -0.981274
H       0.266197    1.771422   -1.427603
H       1.236520    2.153637    0.014604
H      -0.955350    1.084685    0.593780
H      -0.068842   -1.102942   -0.907575
H      -1.364850   -2.039892    1.236629
H      -0.753680   -2.990633    2.489500
H       2.999120   -0.336827    3.423916
