15

O       0.020187    1.285568   -0.025301
C       0.075537   -0.089164    0.107075
C      -0.469150   -0.742554    1.344412
C      -1.284464   -0.784874    0.078270
N      -2.451148    0.054616   -0.259205
C      -2.938113   -0.980367   -1.235637
C      -1.725429   -1.864280   -0.856649
O      -1.319619   -2.941751   -1.180596
H      -0.884239    1.483267   -0.329921
H       0.902744   -0.565430   -0.412974
H      -0.037118   -1.683514    1.670236
H      -0.825080   -0.088793    2.134583
H      -3.091099    0.151830    0.523092
H      -3.908621   -1.424863   -0.994051
H      -2.951026   -0.624182   -2.269620
