19

C      -0.076714    1.554618    0.129828
N       0.049156    0.115138    0.111187
C      -1.169267   -0.684230    0.394324
C      -0.373952   -1.542590    1.404849
C      -1.016106   -2.003718    2.685637
O       0.404827   -2.584991    0.764048
C       1.590397   -1.750052    0.717417
C       0.795046   -0.535581    1.212046
H       0.909159    2.016377    0.010321
H      -0.699726    1.879893   -0.710220
H      -0.530690    1.952555    1.058740
H      -1.965047   -0.100349    0.883934
H      -1.584043   -1.210706   -0.471447
H      -1.751579   -2.788428    2.473590
H      -0.268496   -2.420293    3.366942
H      -1.531475   -1.180105    3.189085
H       2.358051   -2.117673    1.411765
H       2.003604   -1.662531   -0.292324
H       1.208995    0.120448    1.981994
