19

C      -0.043810    1.512074    0.081023
C       0.026433    0.003639    0.057330
C       0.951546   -0.800783   -0.919616
C       0.631136   -1.928940    0.084907
C       0.670940   -0.860833    1.198369
O      -0.781722   -2.146786   -0.111939
C      -1.287531   -0.812179   -0.155595
C      -2.342300   -0.541174    0.899532
O      -2.496831   -1.177191    1.908610
H       0.956756    1.943398    0.184133
H      -0.482239    1.905613   -0.843437
H      -0.647705    1.875861    0.919451
H       0.625382   -0.937718   -1.953964
H       1.987179   -0.457241   -0.876425
H       1.143425   -2.887586    0.126480
H       1.679206   -0.520968    1.442102
H       0.086375   -1.060253    2.097460
H      -1.731046   -0.595112   -1.139885
H      -2.980519    0.344897    0.669661
