15

C       0.000799    1.526481    0.044719
C       0.033515    0.030896    0.027948
C      -0.002538   -0.771915   -1.102561
N       0.047592   -2.101635   -0.682702
C       0.112790   -2.129202    0.669338
O       0.168613   -3.334700    1.271026
C       0.106715   -0.834607    1.152503
C      -0.075341   -0.424311   -2.462623
N      -0.135545   -0.139433   -3.586972
H       0.896801    1.938437    0.522233
H      -0.056039    1.929218   -0.969465
H      -0.863868    1.898988    0.605208
H       0.036281   -2.911692   -1.278777
H       0.211254   -3.204303    2.223555
H       0.149917   -0.542785    2.190701
