17

C       0.005079    1.439656    0.053082
C       0.002842   -0.075481    0.009421
O       0.722379   -0.536865    1.168166
C       0.850027   -1.844950    1.331075
N       1.469183   -2.416832    2.314624
C       1.325757   -3.774070    2.044396
N       1.937284   -4.697521    2.881853
C       0.615674   -3.946228    0.900814
O       0.301254   -2.667397    0.424820
H       1.027404    1.826328    0.032457
H      -0.533956    1.834575   -0.812929
H      -0.483284    1.801986    0.961583
H      -1.015198   -0.479561    0.033292
H       0.493452   -0.455008   -0.893567
H       2.074702   -4.320832    3.810039
H       1.478022   -5.596519    2.914950
H       0.274444   -4.775465    0.310285
