14

C       0.040423    1.510453    0.112978
C       0.000968   -0.001191   -0.000975
O       0.685685   -0.536136    1.146285
C       0.756051   -1.874813    1.225041
N       0.249692   -2.639735    0.341044
C       1.458257   -2.303794    2.405406
C       2.036628   -2.714668    3.375867
H       1.071516    1.874560    0.128326
H      -0.471552    1.958947   -0.743532
H      -0.456669    1.846691    1.027202
H      -1.023027   -0.388827   -0.016063
H       0.495347   -0.361100   -0.909337
H       0.409315   -3.614995    0.582573
H       2.548578   -3.073797    4.234854
