20

C      -0.069841    1.608743   -0.146727
C       0.011862    0.087571   -0.045676
N      -1.329174   -0.498452    0.093499
C      -1.934425   -0.453646    1.485135
C      -3.313688   -1.070926    1.215073
C      -2.879363   -2.255335    0.280965
C      -1.365669   -2.003283    0.257517
C      -1.032975   -1.684591    1.734075
O      -0.185997   -1.993777    2.520360
H       0.924187    2.031751   -0.319876
H      -0.725425    1.906124   -0.969979
H      -0.461642    2.051000    0.774880
H       0.435633   -0.319320   -0.970822
H       0.694818   -0.200636    0.771113
H      -1.858035    0.469268    2.056196
H      -3.803642   -1.404347    2.133329
H      -3.968756   -0.363436    0.703000
H      -3.128006   -3.238307    0.688910
H      -3.310035   -2.169190   -0.718548
H      -0.723510   -2.603924   -0.384538
