22

C      -0.070763    1.530252    0.046199
C       0.059594    0.003246   -0.056578
C       0.768399   -0.402772   -1.356870
C       0.735626   -0.566446    1.199036
C       0.783264   -2.088505    1.308595
C       1.547825   -2.468333    2.581722
N       2.804998   -1.738868    2.731754
C       2.950921   -0.671087    2.071951
O       2.079710   -0.035484    1.250764
H       0.915664    2.001290    0.085785
H      -0.605804    1.933386   -0.819071
H      -0.619511    1.824004    0.947584
H      -0.952350   -0.425782   -0.063841
H       1.807264   -0.060398   -1.353273
H       0.768747   -1.486085   -1.507289
H       0.266611    0.048183   -2.218389
H       0.207902   -0.172215    2.080491
H      -0.234247   -2.493664    1.318637
H       1.297207   -2.505855    0.436576
H       0.930516   -2.286062    3.471996
H       1.777361   -3.539507    2.587098
H       3.886843   -0.115737    2.112587
