16

O       0.144539    0.186395   -0.529356
C       0.099410    1.290158   -0.045836
N       1.157420    1.918862    0.591401
C       2.537477    1.845336    0.154136
C       1.795302    3.144703    0.186538
C       1.498069    4.068725   -1.030267
C       1.778318    5.250638   -0.085516
O       0.836206    5.156603    0.984003
C       2.027636    4.360079    1.063760
H      -0.821253    1.901131    0.000854
H       3.267520    1.614539    0.925818
H       2.725984    1.389507   -0.815056
H       2.229815    3.949969   -1.832757
H       0.485649    4.045667   -1.438476
H       2.189829    6.225060   -0.316270
H       2.650616    4.469419    1.943158
