15

N      -0.100660    1.287762    0.485261
C      -0.033439    0.119958    0.010392
C      -1.248270   -0.781440   -0.041087
O      -1.231642   -1.603885   -1.201098
C      -0.114739   -2.440100   -1.189811
C       0.935975   -2.192101   -2.241334
C       1.173695   -1.769809   -0.815136
O       1.121557   -0.392201   -0.514342
H       0.817915    1.736131    0.462734
H      -1.298036   -1.395558    0.871108
H      -2.139886   -0.157052   -0.086271
H      -0.309396   -3.455543   -0.847205
H       1.496971   -3.035103   -2.628264
H       0.720597   -1.401282   -2.950483
H       1.912340   -2.289372   -0.213491
