16

C      -0.156409    1.600420    0.009595
C       0.044145    0.084401    0.016318
N       0.901752   -0.399941   -1.050925
C       1.865591   -1.300186   -0.664292
O       2.632019   -1.889608   -1.379874
N       1.815080   -1.429945    0.778715
C       2.213687   -0.156591    1.429537
C       0.782008   -0.479002    1.233531
H       0.800673    2.124599    0.076404
H      -0.662985    1.924337   -0.905485
H      -0.779432    1.902269    0.857418
H      -0.943847   -0.397566   -0.035342
H       0.727749   -0.234544   -2.028572
H       2.661620   -0.275760    2.410825
H       2.673568    0.601918    0.802109
H       0.181845   -0.795062    2.080241
