18

C       0.061447    1.528474   -0.022011
N       0.076704    0.075063    0.022391
C       0.515964   -0.595044   -1.196168
C       1.135956   -1.915063   -0.733731
O       1.337443   -2.882317   -1.423772
C       1.399552   -1.803512    0.736056
C       2.235046   -0.596344    1.188685
O       2.963282    0.169103    0.279739
C       0.741325   -0.504181    1.165918
H       1.056420    1.968570   -0.193070
H      -0.610030    1.861016   -0.820404
H      -0.330584    1.916408    0.923922
H      -0.314620   -0.783177   -1.886250
H       1.292106   -0.035610   -1.743445
H       1.421798   -2.712101    1.323882
H       2.704992   -0.729707    2.163642
H       3.740197   -0.332922    0.008526
H       0.205822   -0.416764    2.107158
