18

O       0.297810    1.071260   -0.859092
C       0.016260    0.069949    0.106293
C      -1.276018   -0.622655   -0.305043
C      -1.685338   -1.731505    0.667747
C      -2.951590   -2.431441    0.291010
C      -3.783588   -2.241254   -0.762863
O      -4.816293   -3.137352   -0.666470
C      -4.544686   -3.830057    0.459589
N      -3.466803   -3.469325    1.071684
H       1.112840    1.513722   -0.605392
H       0.832021   -0.669411    0.164935
H      -0.099432    0.505889    1.112334
H      -2.067297    0.133298   -0.372890
H      -1.143006   -1.032790   -1.313156
H      -0.884892   -2.479325    0.747121
H      -1.802133   -1.322160    1.680193
H      -3.805559   -1.576950   -1.608408
H      -5.243796   -4.604866    0.733324
