16

N       0.016043    1.486552   -0.059539
C      -0.039420    0.079021   -0.077728
C      -1.089145   -0.822596    0.035275
C      -0.595361   -2.159123   -0.165733
C       0.757064   -2.016925   -0.339947
C       2.144934   -2.402360   -0.829346
C       2.429097   -0.851322   -0.834307
N       1.076565   -0.683963   -0.275101
H       0.525079    1.843155    0.744445
H      -0.919110    1.873959   -0.028992
H      -2.106974   -0.553358    0.279238
H      -1.181122   -3.064973   -0.164370
H       2.767524   -2.976959   -0.137396
H       2.193517   -2.868283   -1.817045
H       3.232702   -0.499109   -0.181223
H       2.545544   -0.413290   -1.829567
