20

C       0.590851    1.485688    0.120685
C       0.273421   -0.004197   -0.028026
C      -1.229014   -0.323354   -0.024407
C      -1.493972   -1.810813   -0.348526
C      -2.970168   -2.138458   -0.455066
O      -3.523695   -2.972080    0.214862
N      -1.831422    0.058672    1.249538
C      -3.073622    0.605697    1.342856
O      -3.786363    0.869981    0.396440
H       1.671462    1.655260    0.117576
H       0.157863    2.063880   -0.702300
H       0.188774    1.889436    1.054374
H       0.696604   -0.381020   -0.966125
H       0.762290   -0.576958    0.772902
H      -1.733171    0.291953   -0.776876
H      -1.031042   -2.037825   -1.319183
H      -1.046526   -2.465635    0.406579
H      -3.524605   -1.543830   -1.212502
H      -1.359092   -0.200602    2.102474
H      -3.365732    0.797712    2.393366
