21

C      -0.049701    1.551619    0.010741
C      -0.000418    0.020836    0.007432
C       0.807312   -0.537733   -1.204658
C       2.161636   -0.919249   -0.610414
C       2.278164   -0.468898    0.831085
C       0.773765   -0.528161    1.220535
C       0.860786   -2.093229    1.190360
C       2.221951   -1.943523    0.514291
O       3.263380   -2.849903    0.620566
H       0.961875    1.974463    0.010844
H      -0.569101    1.933828   -0.874401
H      -0.570252    1.932268    0.896287
H      -1.025166   -0.369046    0.004481
H       0.305625   -1.395746   -1.665911
H       0.920216    0.219470   -1.987793
H       3.057809   -0.885323   -1.220767
H       3.069500    0.139154    1.247161
H       0.476372   -0.095331    2.176201
H       0.976899   -2.508375    2.194825
H       0.065161   -2.635483    0.664063
H       3.180061   -3.491982   -0.093046
