17

O      -0.380756    1.651822   -0.125463
C      -0.202127    0.285173   -0.077944
C      -1.275002   -0.737650    0.022946
C      -2.700127   -0.307615   -0.342325
C      -2.647157    0.246877   -1.771050
O      -2.648800    1.683747   -1.738436
C      -1.293783   -0.231138   -2.359586
O      -1.038633   -0.183794   -3.540564
C      -0.420353   -0.697645   -1.258820
H      -1.190821    1.873835   -0.617115
H       0.712614    0.060675    0.462173
H      -1.162626   -1.553560    0.728959
H      -3.359020   -1.179545   -0.313314
H      -3.106984    0.436850    0.348906
H      -3.473422   -0.105576   -2.397633
H      -2.436556    1.988580   -2.630521
H       0.374612   -1.394029   -1.494281
