17

C       0.003189    1.468720    0.001029
C       0.022767    0.012619   -0.019940
C       0.041755   -1.191703   -0.026361
C       0.049638   -2.653311   -0.058969
C      -1.361033   -3.240264    0.140238
C       0.685298   -3.147917   -1.368950
O       0.798456   -4.560237   -1.287676
H       0.664911    1.866044    0.778828
H       0.332895    1.886001   -0.957041
H      -1.004562    1.851435    0.197632
H       0.690902   -3.022316    0.753634
H      -2.038643   -2.881377   -0.641221
H      -1.318446   -4.330314    0.092553
H      -1.771776   -2.940131    1.107566
H       0.052357   -2.839790   -2.215751
H       1.668732   -2.672399   -1.495836
H       1.142204   -4.884103   -2.124788
