17

N       0.033896    0.929579   -1.462899
C      -0.218107    0.555897   -0.275644
N      -1.376056   -0.150438    0.004462
C      -1.721195   -0.590900    1.258532
O      -1.067054   -0.402178    2.263958
C      -3.041195   -1.351738    1.298824
C      -4.230717   -0.596651    1.938867
C      -4.875027   -0.724523    0.543370
O      -3.716045   -1.427639    0.024465
H       0.919406    1.432046   -1.492164
H       0.386809    0.722697    0.618401
H      -2.008560   -0.371919   -0.755124
H      -2.841919   -2.344731    1.717527
H      -4.735346   -1.134036    2.741252
H      -4.004640    0.417056    2.270158
H      -5.773925   -1.347116    0.488413
H      -5.053209    0.213169    0.005984
