19

C       0.065792    1.562202    0.023838
C      -0.051574    0.038461   -0.070332
C       0.788337   -0.563534   -1.191385
C       0.731517   -2.080256   -1.254431
O       1.463376   -2.537040   -2.374383
C       0.862572   -2.108592   -3.575950
C       0.393574   -0.655938   -3.606008
O       0.047658   -0.129845   -4.627872
O       0.319428    0.014284   -2.437244
H       1.097284    1.866523    0.231969
H      -0.241780    2.032305   -0.913105
H      -0.566218    1.950758    0.827207
H       0.267328   -0.423331    0.872605
H      -1.098033   -0.249964   -0.227364
H       1.838315   -0.261149   -1.080135
H       1.201917   -2.511041   -0.366641
H      -0.315231   -2.426032   -1.297197
H       1.590115   -2.240689   -4.379437
H      -0.019763   -2.723207   -3.821879
