18

C      -0.191243    1.414593    0.235631
C      -0.114383   -0.102396    0.162907
O       0.847423   -0.741744    0.543050
N      -1.191471   -0.709658   -0.447595
C      -1.573007   -2.105102   -0.293521
C      -2.759572   -2.151447    0.699723
C      -3.042761   -0.701501    1.090659
C      -2.632681   -0.351221   -0.373816
C      -2.967651   -1.844173   -0.771070
H       0.799137    1.801758    0.474571
H      -0.541008    1.845346   -0.707015
H      -0.887686    1.725820    1.022276
H      -0.900866   -2.930408   -0.473991
H      -3.013083   -3.056238    1.236433
H      -4.110984   -0.538377    1.253503
H      -2.462857   -0.238888    1.897253
H      -2.954832    0.559653   -0.872806
H      -3.566965   -2.285225   -1.553157
