13

C       0.003929    1.464906    0.062372
C       0.031346   -0.033410    0.026025
N       0.061342   -0.624024   -1.178397
C       0.084693   -1.954181   -1.140641
N       0.081051   -2.722829   -0.053666
C       0.050267   -2.023899    1.077710
O       0.044769   -2.729063    2.207772
N       0.024497   -0.691502    1.187521
H       0.884552    1.864208   -0.450256
H      -0.871534    1.832938   -0.481481
H      -0.020614    1.826020    1.090341
H       0.109390   -2.471869   -2.097380
H       0.021554   -2.086518    2.931407
