22

C       0.149917    1.498833   -0.155443
C       0.097664   -0.022885    0.037638
C       0.876014   -0.449924    1.289616
C      -1.345190   -0.520611    0.091405
C      -2.237545   -0.377059   -1.173959
C      -2.816455   -1.806197   -0.903050
C      -1.613426   -2.052133    0.068143
C      -4.112145   -1.798164   -0.241212
N      -5.138612   -1.785361    0.291920
H       1.183609    1.850122   -0.235673
H      -0.379372    1.809672   -1.062025
H      -0.311568    2.016091    0.694118
H       0.574346   -0.493159   -0.836079
H       0.440651   -0.002838    2.191199
H       0.867597   -1.536980    1.419596
H       1.921011   -0.128969    1.231909
H      -1.853359   -0.070966    0.953125
H      -2.954110    0.444288   -1.210834
H      -1.646103   -0.376986   -2.094330
H      -2.872237   -2.469425   -1.769433
H      -0.818022   -2.599443   -0.446322
H      -1.837658   -2.552147    1.011085
