18

C      -0.373676    1.615988   -0.554110
C      -0.539004    0.099785   -0.492974
N       0.587638   -0.539341   -1.183307
C       1.779297   -0.847713   -0.422237
C       0.913769   -1.952174   -0.941491
C       0.158847   -2.779491    0.065506
N      -0.199487   -4.016381   -0.389225
O      -0.106709   -2.400402    1.193610
H       0.525290    1.933929   -0.015571
H      -0.285975    1.957904   -1.589484
H      -1.233390    2.112105   -0.093407
H      -0.638888   -0.238417    0.544889
H      -1.451539   -0.197012   -1.024029
H       2.730919   -0.641327   -0.905433
H       1.749192   -0.706793    0.656756
H       1.218506   -2.481704   -1.842913
H      -0.084650   -4.289878   -1.348904
H      -0.750057   -4.600994    0.218073
