20

C      -0.204651    1.189127   -0.366955
C       1.239641    0.885767   -0.040555
C       0.186337   -0.177546    0.132357
C      -0.224172   -0.642565    1.516523
C      -1.645090   -1.283312    1.499488
C      -1.364484   -2.766627    1.504585
C      -0.091856   -3.033919    1.792204
C       0.711008   -1.778167    2.031977
H      -0.748185    1.839596    0.311229
H      -0.484882    1.304439   -1.408300
H       1.945144    0.794061   -0.859141
H       1.658313    1.334105    0.855088
H       0.187550   -0.972016   -0.611324
H      -0.194750    0.221233    2.189103
H      -2.231849   -0.997421    2.383902
H      -2.225636   -0.956310    0.628800
H      -2.135154   -3.508054    1.322896
H       0.335454   -4.026960    1.881263
H       1.675410   -1.775652    1.510456
H       0.940402   -1.663689    3.100846
