17

O      -0.205364   -0.008741    0.234246
C      -0.164535    1.193877    0.118770
C      -1.301833    2.126775   -0.032735
C      -0.862548    3.389947   -0.084107
C       0.636745    3.506711    0.025346
C       1.130368    2.045570    0.108019
C       2.002783    1.732950    1.299976
C       2.968804    0.632985    1.280080
O       3.401221    1.994432    1.167126
H      -2.328453    1.787729   -0.081585
H      -1.494799    4.265789   -0.187576
H       1.058494    4.046927   -0.829741
H       0.917321    4.088280    0.913129
H       1.690708    1.774454   -0.793271
H       1.586619    2.028457    2.265481
H       3.237466    0.132337    2.208313
H       3.072004    0.030750    0.379680
