13

O       0.093250    1.332420    0.313903
C      -0.068868   -0.047316    0.149088
C      -1.447681   -0.344278   -0.419090
O      -2.263343    0.506603   -0.665910
C      -1.753294   -1.828460   -0.633113
C      -3.002956   -2.230509    0.139710
O      -3.079444   -3.216377    0.822396
H       0.969040    1.491802    0.677631
H       0.671247   -0.492619   -0.540559
H       0.017648   -0.612380    1.095370
H      -1.980050   -1.953376   -1.700152
H      -0.927966   -2.491626   -0.364019
H      -3.849021   -1.523103    0.019754
