16

C      -0.071119    1.521276   -0.069108
C      -0.039440    0.023318    0.078342
O       1.252935   -0.614625   -0.046675
C       0.600843   -0.646771    1.208236
C       1.284540   -0.120070    2.496813
C       0.896170   -1.458004    3.153792
O      -0.527447   -1.574809    3.059854
C       0.260496   -1.951147    1.918830
H       0.742287    1.986785    0.493215
H       0.029956    1.808250   -1.120906
H      -1.023370    1.918071    0.298833
H      -0.836514   -0.515673   -0.436846
H       2.360710   -0.007635    2.341538
H       0.873302    0.774336    2.970223
H       1.392225   -1.997270    3.951473
H       0.138307   -2.948925    1.514400
