17

O       0.116350    1.430838    0.231751
C       0.066375    0.035589   -0.030715
C      -1.341629   -0.483288   -0.056679
C      -2.068191   -0.954375    1.181075
C      -1.894443   -1.916885    0.035446
N      -2.953817   -1.630801   -0.961428
C      -2.348236   -0.270988   -1.194334
C      -1.220717   -3.168426    0.124952
N      -0.673286   -4.187870    0.174313
H      -0.263967    1.579255    1.104184
H       0.537790   -0.093351   -1.010675
H       0.659419   -0.541289    0.696038
H      -1.433425   -1.136956    2.042685
H      -3.079836   -0.625575    1.400488
H      -2.843827   -2.217196   -1.782739
H      -3.061736    0.550901   -1.085170
H      -1.847141   -0.188202   -2.163679
