17

C      -0.067488    1.547202    0.271913
C       0.012102    0.051211    0.011850
C      -1.335421   -0.614169   -0.219308
O       0.854009   -0.183604   -1.128104
C       1.938103   -0.902566   -0.764653
N       2.824997   -1.233992   -1.596986
C       1.814526   -1.165951    0.713266
N       2.564998   -1.788155    1.512553
O       0.665895   -0.584554    1.121766
H       0.934994    1.952602    0.426830
H      -0.525614    2.049859   -0.583107
H      -0.669530    1.738362    1.163329
H      -1.826673   -0.168420   -1.087398
H      -1.197660   -1.682820   -0.399112
H      -1.971694   -0.480919    0.658770
H       3.561572   -1.770345   -1.139460
H       3.380701   -2.155848    1.023700
