14

N       0.045179    1.386389   -0.079244
C      -0.017447    0.016099   -0.023648
N      -1.092635   -0.680025   -0.066572
C      -0.667709   -2.088578   -0.078997
C      -1.165884   -2.835554   -1.226906
C      -1.564893   -3.451070   -2.177295
C       0.890913   -2.065243   -0.037595
O       1.681153   -2.968695   -0.054912
N       1.176177   -0.707189    0.037772
H       0.758435    1.823644    0.486461
H      -0.863720    1.815946    0.025924
H      -1.009464   -2.579605    0.843706
H      -1.921495   -3.997311   -3.015276
H       2.106406   -0.335634   -0.073139
