16

C       0.058947    1.482961    0.026265
C       0.002957   -0.009433   -0.018942
C      -0.189854   -0.826405   -1.104250
N      -0.161147   -2.113699   -0.609550
C       0.056177   -2.023218    0.728383
C       0.115222   -3.239900    1.596247
O       0.346135   -4.361102    0.749548
N       0.158581   -0.773875    1.121795
H       1.017213    1.829700    0.428225
H      -0.067694    1.911993   -0.971629
H      -0.725596    1.889353    0.674147
H      -0.332317   -0.619896   -2.152002
H      -0.224736   -2.980334   -1.116582
H       0.913150   -3.110042    2.340432
H      -0.831060   -3.352767    2.148630
H       0.208107   -5.160659    1.264238
