20

C      -0.285629    1.531511   -0.081526
C       0.102958    0.070612   -0.040701
O       1.357639   -0.181381   -0.769971
C       1.964095   -0.686879    0.357051
N       3.136357   -1.097614    0.540133
C       0.743499   -0.533015    1.243480
C       0.898072    0.305010    2.511224
C       1.630626   -0.465085    3.617264
O       1.755010    0.296038    4.808582
H       0.511171    2.170055    0.308048
H      -0.494709    1.834826   -1.111595
H      -1.189922    1.700035    0.512356
H      -0.686964   -0.554870   -0.467950
H       3.692409   -1.032239   -0.314448
H       0.306172   -1.505547    1.493133
H       1.454179    1.224571    2.291121
H      -0.087172    0.607740    2.884911
H       1.051636   -1.354797    3.891016
H       2.604854   -0.810459    3.246261
H       2.416464    0.977309    4.653455
