20

O       0.109207    1.465369   -0.046156
C       0.083798    0.036787    0.097092
C      -1.377768   -0.364285    0.341572
N      -2.377988   -0.239894   -0.710044
C      -2.125057    0.523025   -1.931972
C      -2.231799   -0.963536   -1.964040
C      -1.063590   -1.887252   -2.269923
C       0.343108   -1.404426   -2.018311
C       0.812421   -0.629757   -1.041076
H       1.010342    1.725600   -0.264114
H       0.618941   -0.229724    1.026643
H      -1.390331   -1.404104    0.690289
H      -1.716337    0.254047    1.181265
H      -2.956909    1.134881   -2.274087
H      -1.147097    0.969111   -2.067443
H      -3.173123   -1.389495   -2.314366
H      -1.216984   -2.830434   -1.721380
H      -1.141668   -2.168835   -3.327639
H       1.072164   -1.780478   -2.734190
H       1.884814   -0.427000   -1.042849
