23

C      -0.044342    1.370479   -0.229846
C      -0.042217   -0.148332   -0.189029
O      -1.368456   -0.596497   -0.000794
C      -1.482909   -2.001465    0.053303
C      -2.943635   -2.357955    0.269851
C      -3.845778   -2.104055   -0.972148
C      -3.729104   -3.608831   -1.344994
C      -3.255994   -3.881481    0.105754
O      -2.266393   -4.849683    0.361786
H       0.971459    1.750237   -0.374745
H      -0.670885    1.731143   -1.050596
H      -0.438097    1.778275    0.705439
H       0.369206   -0.559776   -1.127211
H       0.602355   -0.513083    0.628970
H      -1.100925   -2.443383   -0.886650
H      -0.868420   -2.411668    0.871898
H      -3.273969   -1.902989    1.207607
H      -4.864039   -1.824200   -0.692302
H      -3.471867   -1.376179   -1.694180
H      -4.621126   -4.132322   -1.696378
H      -2.921716   -3.787587   -2.064158
H      -4.100583   -4.156694    0.744171
H      -1.569477   -4.749968   -0.294589
