15

C      -0.058925    1.489002   -0.006952
C       1.252702    0.708837    0.039039
C      -0.052538    0.000388   -0.079707
O      -0.550967   -0.821806    0.993314
C      -0.938519   -1.817020    0.036864
C      -1.980555   -1.289788   -0.897581
C      -0.515035   -0.968239   -1.138564
H      -0.400864    1.935061    0.920581
H      -0.300032    2.054412   -0.901030
H       1.906058    0.739783   -0.827197
H       1.763009    0.645289    0.993859
H      -0.771748   -2.855978    0.293627
H      -2.401835   -2.016247   -1.586071
H      -2.665808   -0.519038   -0.556872
H       0.018359   -1.224237   -2.043737
