19

O      -0.206980    1.379454    0.024541
N       0.014459   -0.010337    0.057422
C      -1.073881   -0.641536   -0.047943
C      -2.539999   -0.321791   -0.237084
N      -2.754805   -1.765554   -0.532078
C      -1.377912   -2.121208   -0.085842
C      -3.855258   -2.424600    0.090511
C      -5.172604   -2.440774   -0.639925
C      -4.354203   -3.703948   -0.528836
H       0.687801    1.729154    0.093713
H      -3.021545    0.028536    0.689661
H      -2.802198    0.363004   -1.049937
H      -0.811574   -2.739080   -0.790190
H      -1.340713   -2.591210    0.909658
H      -3.905272   -2.361101    1.184067
H      -6.082486   -2.357538   -0.056490
H      -5.200560   -1.949936   -1.605541
H      -3.843487   -4.045658   -1.421404
H      -4.700064   -4.491354    0.131170
