12

N       0.036699    1.379695   -0.113343
C      -0.016800    0.016572   -0.040064
C      -1.160566   -0.721535   -0.017537
C      -1.109614   -2.157877    0.006546
O      -2.031238   -2.928103    0.025803
O       0.186926   -2.731015    0.015125
N       1.339462   -1.994529   -0.003691
C       1.233522   -0.713275   -0.031937
H       0.891364    1.844229    0.145277
H      -0.805653    1.902237    0.065210
H      -2.147289   -0.274346   -0.018689
H       2.182493   -0.183776   -0.052852
