20

C      -1.562402   -0.051612   -0.249499
O      -0.169121    0.191355   -0.177833
C       0.649513   -0.658846   -0.974015
C       0.493344   -0.289048   -2.449486
O       0.748437    1.085803   -2.655382
C       2.120470   -0.637513   -0.497699
C       2.160114   -2.181311   -0.668077
C       0.605647   -2.189428   -0.700265
H      -1.990064    0.208509   -1.227787
H      -1.803671   -1.101392   -0.034187
H      -2.030289    0.578011    0.511200
H       1.210647   -0.853167   -3.055372
H      -0.514084   -0.569693   -2.800377
H       0.363472    1.537587   -1.893550
H       2.812681   -0.028204   -1.081639
H       2.169208   -0.338573    0.551787
H       2.596840   -2.486359   -1.622124
H       2.638450   -2.755161    0.127423
H       0.182859   -2.395403    0.286723
H       0.109225   -2.823757   -1.440093
