20

C      -0.050771    1.586236   -0.219409
C       0.034346    0.076257   -0.051970
C       1.364938   -0.609424   -0.209554
N       0.738520   -0.535350    1.097112
C       1.328250    0.296750    2.107597
C       0.588808    0.408462    3.413429
C       1.853635   -0.411233    3.329343
C      -1.165532   -0.623922   -0.450689
C      -2.174912   -1.171861   -0.806524
H       0.902568    2.074757   -0.008352
H      -0.333745    1.827304   -1.247929
H      -0.811938    2.006074    0.445212
H       1.422705   -1.596699   -0.659297
H       2.217789    0.039200   -0.410383
H       1.887972    1.173138    1.778910
H       0.614823    1.356905    3.938020
H      -0.348787   -0.129925    3.485950
H       1.749788   -1.489560    3.344535
H       2.754835   -0.027874    3.794555
H      -3.062283   -1.669648   -1.109895
