16

O       0.013869    1.324634    0.146438
N       0.022639   -0.045442    0.059672
C      -1.123837   -0.620737    0.023200
C      -1.097602   -2.126433   -0.081164
C      -2.173764   -2.579361   -1.069745
C      -3.517288   -2.057447   -0.590049
O      -3.535887   -0.637007   -0.374067
C      -2.456222    0.084353    0.034666
O      -2.617031    1.232386    0.342845
H       0.955866    1.532969    0.126989
H      -0.094342   -2.445091   -0.371352
H      -1.308425   -2.569046    0.903039
H      -1.955469   -2.193982   -2.072284
H      -2.216600   -3.671223   -1.136536
H      -4.312604   -2.244550   -1.315854
H      -3.799603   -2.546151    0.352215
