13

O      -0.020754   -0.028897    0.156816
C      -0.020456    1.170424    0.033075
N      -1.109707    2.004732   -0.054922
C      -0.791182    3.408381   -0.019095
C      -0.133313    3.906829    1.230649
C       0.714331    3.508329    0.013960
C       1.224999    2.105437   -0.040398
O       2.356287    1.723561   -0.161051
H      -2.025990    1.659762    0.190021
H      -1.389556    4.058711   -0.646062
H      -0.157749    4.969547    1.445144
H      -0.134903    3.260383    2.101641
H       1.261038    4.283540   -0.505651
