21

C       0.004131    1.364938   -0.069582
O      -0.077848   -0.033570    0.066289
C       0.663041   -0.564533    1.162401
C       0.029013   -1.907656    1.525570
C       0.922330   -2.694590    2.478278
O       0.214343   -3.868170    2.853926
C       2.264374   -3.015669    1.806661
C       2.836635   -1.813168    1.101640
C       2.127603   -0.720690    0.821480
H       1.023305    1.714459   -0.293687
H      -0.645327    1.645972   -0.902626
H      -0.341389    1.882578    0.839655
H       0.564238    0.129983    2.016521
H      -0.955574   -1.753814    1.975181
H      -0.115269   -2.483248    0.604349
H       1.120108   -2.072112    3.368215
H       0.773996   -4.374671    3.451455
H       2.981257   -3.395271    2.548287
H       2.105870   -3.835459    1.091231
H       3.884790   -1.862948    0.815567
H       2.600573    0.116360    0.314749
