15

C       0.047642    1.532267    0.065393
C       0.007676    0.040953   -0.045532
C       0.632331   -0.798909   -1.191122
C       0.721623   -1.828571   -0.046409
O       0.851367   -0.721063    0.914848
C      -0.742113   -2.173055    0.246226
O      -1.302345   -3.213658    0.424444
C      -1.301061   -0.707553    0.254943
O      -2.408112   -0.301328    0.455110
H       1.058404    1.911657   -0.104403
H      -0.627661    1.971950   -0.674967
H      -0.290177    1.847743    1.056548
H       0.024787   -1.032558   -2.069773
H       1.615517   -0.417981   -1.476651
H       1.478489   -2.604905    0.034014
