19

O      -0.091275    1.392312   -0.135891
C      -0.052927   -0.000099   -0.098414
C      -0.319973   -0.673231    1.222484
O      -0.666569    0.185638    2.283268
C      -1.351258   -0.781380    0.117062
C      -2.701367   -0.054021    0.198629
C      -3.695975   -0.948821   -0.599382
C      -2.884340   -2.165780   -0.971970
C      -1.615216   -2.067260   -0.576279
H      -0.385934    1.673608    0.742018
H       0.695953   -0.404351   -0.773477
H       0.230918   -1.566246    1.514113
H       0.140812    0.399914    2.764344
H      -3.016019    0.058627    1.239121
H      -2.622379    0.950677   -0.224979
H      -4.578586   -1.212943   -0.004054
H      -4.077891   -0.439109   -1.493437
H      -3.304302   -3.005632   -1.514318
H      -0.842325   -2.810409   -0.741942
