21

C       0.222286    1.379760    0.264602
C      -0.356521    0.139940   -0.416092
N       0.582463   -0.460415   -1.349438
C       0.771536   -1.827019   -1.395360
O       0.298863   -2.597532   -0.574365
N       1.541002   -2.249106   -2.460194
C       2.027808   -3.614592   -2.512151
C       2.340859   -3.997874   -3.947771
O       3.332261   -3.088461   -4.418814
H       1.129434    1.128454    0.821715
H       0.478536    2.155913   -0.465843
H      -0.505764    1.808681    0.960480
H      -0.588027   -0.637194    0.314820
H      -1.298452    0.396886   -0.923021
H       0.814400    0.072498   -2.172838
H       2.125461   -1.579405   -2.936854
H       2.932701   -3.748498   -1.900566
H       1.253840   -4.264013   -2.098948
H       2.704243   -5.035959   -3.978880
H       1.425904   -3.932603   -4.554617
H       3.467341   -3.243397   -5.357766
