15

N      -0.033559    1.365975    0.404251
C      -0.083912   -0.003594    0.089455
C      -1.129569   -0.892888   -0.039934
C      -0.542302   -2.163349   -0.289250
O      -1.262900   -3.317216   -0.526730
C      -1.047189   -4.371407    0.302093
O      -1.564540   -5.431958    0.132557
C       0.824103   -2.031122   -0.317333
N       1.086409   -0.697371   -0.077118
H       0.221821    1.940286   -0.393909
H      -0.929745    1.689474    0.745948
H      -2.182931   -0.668909    0.009172
H      -0.349396   -4.115321    1.120156
H       1.605437   -2.743501   -0.519046
H       1.996531   -0.297886    0.073242
