17

C      -0.034099    1.479415   -0.010743
N       1.233803    0.720955   -0.008024
C      -0.053432    0.001128    0.024746
C      -0.379749   -0.841603    1.258022
C      -0.292659   -2.313210    0.771850
C      -0.585541   -2.228394   -0.715449
O      -1.740968   -1.435613   -1.028200
C      -0.444079   -0.834989   -1.158987
H      -0.227235    2.043072    0.898129
H      -0.346090    1.977855   -0.925367
H       1.626567    0.701684   -0.947713
H       0.309335   -0.622086    2.075377
H      -1.395728   -0.620287    1.594704
H       0.717035   -2.717919    0.908849
H      -0.987611   -2.973072    1.299320
H      -0.411779   -3.076408   -1.373115
H      -0.153666   -0.541530   -2.166535
