20

C      -0.153409    1.612537    0.033786
C      -0.036340    0.086148   -0.004072
C       0.752841   -0.506076    1.185577
C       0.754901   -2.012840    1.258149
C       2.013651   -2.468229    1.247884
C       2.543839   -3.860235    1.298334
N       2.913804   -1.384484    1.184900
C       2.258628   -0.169423    1.126918
O       2.792765    0.914731    1.037713
H       0.834112    2.077696    0.056171
H      -0.696998    1.980759   -0.841949
H      -0.698023    1.940099    0.926776
H      -1.035594   -0.366057   -0.000800
H       0.440358   -0.234958   -0.938176
H       0.357068   -0.062820    2.111360
H      -0.132420   -2.627339    1.305936
H       3.152001   -4.087297    0.414051
H       3.181373   -4.012523    2.177750
H       1.723017   -4.578711    1.342125
H       3.916061   -1.459390    1.122728
