20

C      -0.508289    1.519096    0.347961
C      -0.071183    0.090000    0.030630
C      -1.272987   -0.864797   -0.014195
C       0.893665   -0.085794   -1.201067
C       1.878752   -0.913121   -0.324754
O       3.221668   -0.501404   -0.380664
C       1.073157   -0.453936    0.878066
N       1.315899   -0.333901    2.114168
O       2.580737   -0.911869    2.417858
H       0.350216    2.195175    0.391441
H      -1.197462    1.887727   -0.420064
H      -1.020144    1.563798    1.314506
H      -1.974894   -0.550942   -0.794843
H      -0.967516   -1.893272   -0.230659
H      -1.803473   -0.866036    0.943204
H       0.477907   -0.587960   -2.076456
H       1.359271    0.855355   -1.500052
H       1.777280   -1.996082   -0.497907
H       3.597500   -0.688878    0.488737
H       2.686886   -0.696053    3.350164
