20

C      -0.048118    1.423223    0.036295
N      -0.045439   -0.030847    0.020962
C       0.557468   -0.626385    0.963548
N       1.244622   -0.100130    2.057293
C       1.700557   -1.152798    2.856894
C       2.445357   -0.858500    4.117277
N       1.432737   -2.319902    2.410082
C       0.685357   -2.138853    1.153122
C      -0.668065   -2.851357    1.178556
H       0.969162    1.844406   -0.002825
H      -0.592299    1.798028   -0.834043
H      -0.540991    1.831990    0.933304
H       1.302884    0.875752    2.291175
H       1.834232   -0.261406    4.803656
H       2.713460   -1.796752    4.602511
H       3.357627   -0.288595    3.908331
H       1.285092   -2.551085    0.331189
H      -1.276071   -2.492026    2.014239
H      -1.204992   -2.651391    0.248032
H      -0.525535   -3.928530    1.295041
