20

C       0.340449    1.014872   -0.705069
C      -0.025006    0.059268    0.437339
O       0.015207    0.729889    1.675991
C      -1.383267   -0.555138    0.230886
N      -2.346542   -0.424423    1.049552
C      -3.476903   -1.174511    0.488114
C      -2.956691   -1.724501   -0.871278
C      -3.672315   -1.187264   -2.099149
O      -1.565414   -1.284899   -0.891715
H       1.326852    1.443097   -0.511453
H       0.361461    0.489002   -1.663271
H      -0.385222    1.831715   -0.759839
H       0.703426   -0.768562    0.441766
H      -0.862236    0.620284    2.071661
H      -3.777207   -1.971823    1.175964
H      -4.341940   -0.514227    0.356387
H      -2.935420   -2.818368   -0.890294
H      -3.686309   -0.092787   -2.088302
H      -3.180029   -1.520195   -3.016822
H      -4.707325   -1.544289   -2.114235
