17

C       0.018590    1.468249   -0.133551
C      -0.010414   -0.017371    0.013228
O       0.569156   -0.850026   -1.055532
C       0.076712   -1.817575   -0.076598
C       0.603578   -0.962789    1.120123
C      -0.400219   -1.065401    2.248657
C      -1.587175   -1.079774    1.635611
C      -1.246810   -0.985439    0.156129
O      -2.239758   -0.885839   -0.802468
H       1.046952    1.823133   -0.249131
H      -0.557179    1.768737   -1.013854
H      -0.420668    1.938961    0.751394
H       0.217226   -2.880592   -0.289253
H       1.675710   -0.923413    1.298666
H      -0.175033   -1.104801    3.305361
H      -2.584714   -1.123776    2.051698
H      -2.792763   -1.673024   -0.761618
