13

N      -0.024598    1.385466    0.159421
C      -0.010072    0.008570    0.056974
N      -1.167799   -0.646722    0.039099
C      -1.161805   -1.984351    0.003374
C       0.009063   -2.718745   -0.025371
F      -0.028693   -4.055094   -0.064026
C       1.238944   -2.063470   -0.021931
C       1.211024   -0.689117    0.021163
F       2.349590    0.021155    0.018215
H       0.793980    1.861807   -0.185730
H      -0.903048    1.804245   -0.106978
H      -2.122608   -2.489938   -0.007597
H       2.175139   -2.606591   -0.052254
