19

C       0.010155    1.546117   -0.001198
C       0.007026    0.019045   -0.016060
O      -1.315486   -0.487473   -0.170556
C       0.901606   -0.549501   -1.150499
N       2.246062   -0.727094   -0.592636
C       2.139613   -0.726645    0.683111
N       3.164004   -0.925994    1.568106
C       0.732441   -0.571267    1.225139
O       0.738578    0.205181    2.416484
H       1.031524    1.934965    0.026528
H      -0.483443    1.922916   -0.901661
H      -0.508886    1.932347    0.882555
H      -1.921885    0.108383    0.280438
H       0.485783   -1.508538   -1.487064
H       0.932808    0.111694   -2.023114
H       4.092600   -0.819758    1.186994
H       3.018957   -0.510745    2.476478
H       0.308328   -1.567379    1.419385
H      -0.042266   -0.017889    2.930467
