15

C      -0.231395    1.490733   -0.057059
N       0.031873    0.057387    0.026944
C       1.378366   -0.431342   -0.293978
C       2.443403    0.449483   -0.680845
C       3.334799    1.166451   -1.051803
C       0.857033   -0.443324    1.132961
C       1.417032    0.425946    2.128248
C       1.855378    1.132573    2.997023
H       0.608010    2.123999    0.253653
H      -0.487847    1.729611   -1.092881
H      -1.094848    1.715883    0.575006
H       1.374086   -1.386252   -0.816288
H       4.127157    1.799805   -1.366073
H       0.522256   -1.405833    1.515300
H       2.255019    1.756963    3.757389
