15

O       1.364218    1.424356   -0.138001
C       0.387080    0.397780    0.003240
C       0.309500   -0.457929   -1.191059
C       0.269002   -1.140997   -2.178174
C       0.597669   -0.409558    1.213773
C       0.803127   -1.054248    2.207829
C       1.040066   -1.836736    3.422337
C       2.223499   -2.695039    3.344874
C       3.192712   -3.401181    3.293589
H       2.222581    0.991694   -0.216998
H      -0.561762    0.940638    0.103324
H       0.227214   -1.747279   -3.049342
H       1.137521   -1.158283    4.281010
H       0.155593   -2.453976    3.632189
H       4.049882   -4.025986    3.244129
