16

N       0.729785   -1.048877   -0.188092
C       0.382291    0.049759   -0.106791
C       0.007291    1.485188    0.005558
N       1.124422    2.407781    0.143057
C       1.815432    2.350242    1.409455
C       2.823072    1.275922    1.767816
C       3.273831    2.686179    1.460043
C      -0.822871    1.866254   -1.152515
N      -1.468430    2.173545   -2.058201
H      -0.616868    1.585888    0.903213
H       1.757489    2.325744   -0.644457
H       1.198324    2.732023    2.219241
H       2.859001    0.929789    2.794767
H       3.033568    0.510275    1.030457
H       3.785356    2.854463    0.517270
H       3.624319    3.318942    2.266961
