14

N      -0.014076   -1.150150   -0.064916
C      -0.018759    0.006155   -0.040791
C      -0.024187    1.435314   -0.010463
C      -0.510773    2.357417    1.158641
N       0.896005    2.609714    1.528671
C       1.215195    2.386378    0.104671
C       0.341031    3.317572   -0.786305
C      -0.927092    3.296145   -0.012075
N      -0.703317    2.282801   -1.099554
H      -1.221459    2.081964    1.933725
H       1.091974    3.548589    1.875375
H       2.235697    2.140006   -0.177433
H       0.630953    4.067676   -1.510058
H      -1.721619    4.027890   -0.073765
