18

C      -0.243271    1.514972    0.113289
N       1.084861    0.940696   -0.134515
C      -0.067482    0.037730    0.031193
C      -0.110809   -0.883893    1.194644
C      -0.594240   -2.080870    0.863415
C      -0.958822   -2.172361   -0.598706
C      -0.562883   -0.796896   -1.149509
C      -1.094205   -0.257196   -2.404495
O       0.243867   -0.764847   -2.336830
H      -0.363417    1.986164    1.085938
H      -0.768829    2.018462   -0.693912
H       1.308175    0.970807   -1.128908
H       0.229686   -0.577645    2.176164
H      -0.723877   -2.914072    1.544037
H      -0.410444   -2.962067   -1.125994
H      -2.027214   -2.377104   -0.744270
H      -1.792115   -0.855985   -2.989723
H      -1.178000    0.817421   -2.559187
