16

F       0.204087    0.089422   -0.160864
C       0.004927    1.413075   -0.020774
F       1.207899    2.005861   -0.095323
F      -0.708574    1.813792   -1.088457
C      -0.702966    1.771719    1.266572
C      -1.978629    0.967018    1.681138
C      -1.324863    0.689989    3.043783
C      -0.045823   -0.070222    2.862641
C      -0.045985    1.413728    2.604502
H      -0.919417    2.840762    1.205917
H      -2.863143    1.603539    1.730938
H      -2.212430    0.084614    1.079037
H      -1.833978    0.744797    3.997365
H       0.452909   -0.356097    3.783213
H       0.071486   -0.782022    2.053215
H       0.585968    2.088671    3.167390
