12

O       0.014851    0.037136   -0.091286
C       0.023938    1.227153    0.044981
C      -1.111414    2.287354    0.139358
C      -0.021648    3.356946   -0.033734
C       0.941100    3.265745    1.092532
C       1.091466    2.274220   -0.058723
H      -1.782103    2.181518   -0.718201
H      -1.705124    2.329129    1.057170
H      -0.090081    4.217158   -0.685517
H       1.728398    4.011784    1.125314
H       0.613699    2.920972    2.069733
H       2.009887    2.211174   -0.628614
