19

C       0.091721    1.410925   -0.270661
N      -0.028987    0.043984    0.207060
C      -1.366980   -0.533302    0.143601
C      -2.036915   -0.542435   -1.251300
C      -1.331061   -1.936318    0.683115
N      -0.248377   -2.697901    0.638624
N      -0.691861   -3.862215    1.172682
C      -1.991669   -3.754813    1.507756
N      -2.434737   -2.550533    1.209197
H       1.117591    1.756138   -0.108714
H      -0.150726    1.568317   -1.335578
H      -0.569624    2.060458    0.315587
H       0.630958   -0.568524   -0.258964
H      -2.010205    0.048431    0.817109
H      -2.164759    0.473860   -1.633890
H      -1.427002   -1.108127   -1.964322
H      -3.023663   -1.010908   -1.194532
H      -0.059717   -4.637472    1.284076
H      -2.556499   -4.557420    1.957880
