18

O      -0.212066    1.555104    0.027880
C       0.035362    0.159876   -0.014227
C      -1.315323   -0.543802    0.100574
C      -1.212005   -2.033444    0.025443
O      -2.224479   -2.839185    0.628520
C      -0.864364   -3.080987    0.992885
C      -0.177402   -3.925305   -0.139847
N      -1.198546   -4.207384   -1.176080
C      -0.534363   -2.883194   -1.126215
H       0.630771    2.013902   -0.032274
H       0.534049   -0.126909   -0.954347
H       0.689418   -0.159849    0.812425
H      -1.785126   -0.270637    1.050526
H      -1.969887   -0.175930   -0.699685
H      -0.602032   -3.046147    2.043773
H       0.725187   -4.512781   -0.038725
H      -0.724289   -4.737231   -1.908895
H       0.030565   -2.490670   -1.961651
