16

O      -0.055352    0.044333    0.370631
C      -0.034001    1.220805    0.111886
N      -1.160490    2.033171   -0.014478
C      -0.913191    3.370066   -0.325028
O      -1.760569    4.212987   -0.476445
C       0.598236    3.526639   -0.397793
C       1.255459    4.065838    0.915373
C       1.834550    2.650328    1.203010
C       1.174905    2.116881   -0.111291
H      -2.097404    1.675054    0.109209
H       0.882967    4.041030   -1.315544
H       2.012242    4.830470    0.734129
H       0.549369    4.453067    1.652739
H       2.924298    2.601037    1.187135
H       1.484715    2.166769    2.117344
H       1.855205    1.664169   -0.832527
