24

C       0.124300    1.510588   -0.103836
C       0.026979   -0.011517    0.085058
C       0.672074   -0.386597    1.429993
C      -1.425043   -0.554519   -0.028966
C      -2.210338    0.089814   -1.184350
C      -1.423785   -2.101047   -0.157845
C      -2.791744   -2.747466    0.073580
O      -0.856658   -2.525632   -1.398133
H       1.155946    1.845997    0.045866
H      -0.180479    1.829402   -1.103643
H      -0.500954    2.042612    0.624344
H       0.602252   -0.490473   -0.718253
H       0.133625    0.082518    2.262958
H       0.688758   -1.464615    1.610475
H       1.708738   -0.036666    1.470440
H      -1.947983   -0.312130    0.908516
H      -1.680196   -0.023604   -2.137074
H      -3.204408   -0.354390   -1.295261
H      -2.358630    1.159207   -1.021053
H      -0.739650   -2.507428    0.593129
H      -3.528414   -2.426567   -0.671679
H      -2.703201   -3.835404    0.007375
H      -3.186237   -2.491763    1.062499
H      -1.483931   -2.309858   -2.096167
