21

C       0.073167    1.565491    0.256041
C      -0.010186    0.081561   -0.142851
C      -1.397317   -0.485777   -0.063165
C      -2.210757   -0.810750   -1.130931
N      -2.055500   -0.749824   -2.538530
N      -3.401546   -1.283887   -0.622748
C      -3.376396   -1.273155    0.749701
C      -4.532895   -1.738934    1.571224
C      -2.144513   -0.779458    1.119236
H       1.102129    1.936142    0.195192
H      -0.551399    2.182508   -0.398354
H      -0.280421    1.715183    1.281044
H       0.368786   -0.037731   -1.165741
H       0.666683   -0.496077    0.500128
H      -1.772169    0.174099   -2.845889
H      -1.354851   -1.404006   -2.873547
H      -4.165981   -1.578132   -1.206655
H      -4.782905   -2.790569    1.380442
H      -4.294184   -1.645234    2.633318
H      -5.440661   -1.150977    1.383927
H      -1.808413   -0.649463    2.138397
