24

C       0.009771    1.479403    0.328055
C      -0.068127   -0.010901   -0.022241
C      -1.507485   -0.540332    0.047461
O      -2.093986   -0.424934    1.334258
C       0.525644   -0.296516   -1.410640
N       1.942949    0.047460   -1.446814
C       2.911706   -1.017715   -1.205555
C       2.783161   -0.402229   -2.558129
C       2.251960   -1.189716   -3.736729
H       1.031944    1.843500    0.206911
H      -0.637760    2.071509   -0.332126
H      -0.296125    1.664931    1.363104
H       0.519250   -0.573704    0.716165
H      -2.124077   -0.035174   -0.716155
H      -1.522263   -1.611058   -0.184725
H      -2.205138    0.511237    1.524317
H       0.335324   -1.351859   -1.669814
H       0.010189    0.315620   -2.163185
H       3.744489   -0.775339   -0.550131
H       2.528628   -2.032507   -1.092695
H       3.526310    0.344371   -2.837696
H       1.575901   -1.992717   -3.434104
H       1.716319   -0.540032   -4.438038
H       3.084580   -1.646362   -4.282235
