16

C      -0.234903   -1.259934   -0.257040
C      -0.111244   -0.070213   -0.139567
C       0.029745    1.367241    0.004734
C      -0.266828    1.967713    1.450720
N       1.118160    2.450681    1.438660
C       2.167468    3.144163    1.971097
C       3.180476    3.050500    1.026688
C       2.723547    2.293304   -0.100227
C       1.430455    1.948078    0.215660
H      -0.334455   -2.311705   -0.363973
H      -0.547973    1.880552   -0.772036
H      -1.021377    2.758977    1.474174
H      -0.475641    1.219374    2.218529
H       2.133983    3.624985    2.934612
H       4.164992    3.481443    1.135141
H       3.286069    2.053511   -0.987907
