18

C       0.073305    1.544429    0.018852
C      -0.018549    0.036958    0.001449
C       0.444873   -0.722140   -1.278244
C      -0.686914   -1.752820   -1.069162
O      -0.357972   -2.707310   -0.034953
C      -0.743661   -1.773225    0.998281
C       0.374396   -0.747482    1.289414
C      -1.365717   -0.802641   -0.043815
H       1.120043    1.871564    0.050831
H      -0.382416    1.983963   -0.875758
H      -0.431068    1.966478    0.895596
H       0.250226   -0.117323   -2.171532
H       1.467839   -1.107585   -1.315924
H      -1.152034   -2.230151   -1.933820
H      -1.255249   -2.267266    1.826543
H       1.393964   -1.134149    1.375535
H       0.130719   -0.160296    2.182436
H      -2.381987   -0.417333   -0.067906
