18

C      -0.067332    1.495795   -0.111930
C       0.052236    0.015547    0.094175
C       1.304368   -0.788869   -0.127175
C       0.662963   -0.769575    1.248399
C       1.373213   -0.256231    2.473853
O       2.209877   -1.250462    3.035357
N      -0.254627   -1.867601    1.502317
C      -1.191538   -1.739623    0.651648
O      -1.159999   -0.692304   -0.206075
H       0.859583    1.993475    0.184928
H      -0.250524    1.727513   -1.166275
H      -0.889194    1.910955    0.479088
H       1.254678   -1.701299   -0.712189
H       2.221108   -0.218434   -0.235779
H       2.016901    0.591395    2.216780
H       0.628792    0.097194    3.204995
H       1.661697   -2.038987    3.129275
H      -2.045886   -2.396084    0.538913
