17

C      -0.065699    1.566590   -0.039368
C      -0.016577    0.045010   -0.010935
C       1.340091   -0.645771   -0.208286
C       0.695592   -0.645842    1.146358
O       1.189114    0.181767    2.153386
C      -1.168370   -0.621538   -0.544396
C      -2.151749   -1.165323   -0.999038
C      -3.249711   -1.785507   -1.507477
C      -4.225882   -2.335730   -1.959249
H       0.802246    1.982988    0.473990
H      -0.082009    1.930010   -1.070876
H      -0.965364    1.930316    0.465073
H       1.368362   -1.567608   -0.776983
H       2.185355    0.019173   -0.352271
H       0.249250   -1.577021    1.491738
H       2.048738   -0.157719    2.424083
H      -5.083122   -2.819909   -2.356023
