21

C       0.000899    1.329393   -0.182368
N      -0.041963   -0.121950   -0.244107
C      -1.068147   -0.767204    0.556422
C       0.902424   -0.781923   -0.980129
O       1.757005   -0.202093   -1.634515
C       0.873591   -2.316902   -0.970861
N      -0.299131   -2.836129   -1.673055
C      -0.201980   -2.847527   -3.132202
C      -0.119602   -4.115156   -2.356517
H       0.165365    1.669365    0.848401
H       0.817554    1.675242   -0.813579
H      -0.945266    1.757832   -0.535379
H      -0.808804   -0.771018    1.624816
H      -2.009063   -0.216068    0.445538
H      -1.241824   -1.784287    0.209607
H       1.819275   -2.620497   -1.441666
H       0.861896   -2.707202    0.053586
H      -1.112006   -2.587000   -3.664307
H       0.714683   -2.466778   -3.576668
H       0.854448   -4.595849   -2.286954
H      -0.966965   -4.793222   -2.314324
