19

C      -0.494032    1.464742    0.044639
C       0.002532    0.046225   -0.001323
C       1.137224   -0.368947   -0.978217
C       1.837094   -1.175126    0.151159
O       3.102240   -0.681279    0.577764
C       0.713215   -0.761733    1.153957
O       1.139503   -0.292534    2.379504
C      -0.532543   -1.647351    1.120589
O      -1.065814   -0.933986   -0.020460
H       0.339534    2.168429    0.138418
H      -1.045820    1.709180   -0.870371
H      -1.164305    1.609004    0.896594
H       0.802282   -0.943059   -1.843955
H       1.747693    0.472791   -1.328171
H       1.947774   -2.251642   -0.012289
H       3.283180    0.144470    0.118410
H       2.099289   -0.179610    2.289680
H      -0.387717   -2.716880    0.920180
H      -1.165226   -1.524383    2.008239
