21

C      -0.100929    1.602923   -0.103023
C      -0.004382    0.073155   -0.026371
C       0.812079   -0.494187   -1.201691
O       2.187632   -0.148016   -1.077843
C       2.718204   -0.628734    0.124765
O       2.064201   -0.099220    1.250386
C       0.670955   -0.442179    1.260399
C       0.125309    0.087841    2.579798
O       0.784339   -0.512775    3.677185
H       0.886898    2.057795    0.001649
H      -0.513769    1.910529   -1.069299
H      -0.751290    2.009100    0.676361
H      -1.012180   -0.360113   -0.076801
H       0.707489   -1.591623   -1.239647
H       0.476170   -0.084562   -2.158193
H       2.656865   -1.734099    0.148539
H       3.759526   -0.304027    0.173339
H       0.588689   -1.542765    1.283479
H       0.222535    1.182922    2.606758
H      -0.938035   -0.160471    2.665165
H       1.727482   -0.406240    3.505132
