18

O       0.209112    1.413041    0.402749
C       0.135793    0.044964    0.130473
C      -0.618327   -0.853978    1.099946
C      -1.238320   -0.471053   -0.212453
C       1.297830   -0.580337   -0.585259
O       1.325153   -1.753606   -0.893918
N       2.383918    0.281323   -0.769855
C       2.387741    1.350677   -1.761241
C       3.252433    0.138273   -1.918647
H       0.984958    1.557348    0.956824
H      -0.252144   -1.866808    1.215502
H      -0.986800   -0.364809    1.994084
H      -2.026514    0.272618   -0.204741
H      -1.295793   -1.225411   -0.987736
H       1.517619    1.439893   -2.405204
H       2.817513    2.294504   -1.438912
H       4.316652    0.207487   -1.714841
H       2.965023   -0.609720   -2.652022
