22

C       0.140986    0.472009    0.708998
C      -0.392479    0.630610   -0.726693
C       0.329611   -0.183418   -1.699194
C       0.940045   -0.858712   -2.491424
C       1.618826   -1.667299   -3.467216
C       3.088195   -1.981482   -3.326002
C       3.921607   -1.422755   -2.194791
N       2.092805   -3.032739   -3.155566
C       1.836418   -3.589553   -1.834155
H       0.062503   -0.567232    1.039882
H       1.192311    0.766828    0.767896
H      -0.431729    1.097600    1.400034
H      -1.458569    0.369785   -0.750889
H      -0.334952    1.686094   -1.022973
H       1.214237   -1.578838   -4.474181
H       3.639017   -2.085362   -4.261177
H       3.316127   -1.135908   -1.333550
H       4.673323   -2.149930   -1.868407
H       4.453765   -0.529500   -2.537914
H       1.788281   -2.854705   -1.020245
H       0.880059   -4.120957   -1.862457
H       2.620560   -4.318055   -1.604960
