18

C      -0.767950    1.317078   -0.015020
C       0.049941    0.030238   -0.085038
C       1.264577    0.058434   -1.019457
C       2.187564   -1.006257   -0.437371
O       3.119824   -1.551544   -0.951931
O       1.793547   -1.283820    0.836276
C       0.692157   -0.440344    1.246744
C       1.220981    0.655708    2.165594
H      -0.151033    2.172781    0.276295
H      -1.210393    1.543800   -0.989849
H      -1.587302    1.229972    0.706507
H      -0.607460   -0.781943   -0.419073
H       1.045526   -0.160011   -2.065529
H       1.786180    1.023074   -0.988618
H       0.008620   -1.085804    1.806421
H       1.889506    1.340709    1.634373
H       0.398187    1.237545    2.590818
H       1.783534    0.205205    2.987243
