24

C      -0.050275    1.546631   -0.122894
C      -0.015554    0.020560   -0.032219
C      -1.412876   -0.548643   -0.292366
C       1.043453   -0.666267   -0.918846
N       2.373362   -0.147296   -0.519193
C       1.744320   -1.245740    0.252494
C       0.749892   -0.612694    1.247361
C       1.361937    0.378143    2.238287
C      -0.039520   -1.684895    2.003281
H       0.953989    1.969247   -0.072804
H      -0.501374    1.859820   -1.071871
H      -0.652820    1.978927    0.684013
H      -1.798947   -0.158065   -1.241005
H      -1.417931   -1.639376   -0.363952
H      -2.118817   -0.257672    0.492533
H       0.886579   -1.079112   -1.909786
H       3.061437   -0.571069   -1.140622
H       2.244932   -2.202175    0.360354
H       2.036076    1.073966    1.737272
H       0.585699    0.953529    2.755421
H       1.936771   -0.157064    3.003307
H       0.599115   -2.141932    2.767990
H      -0.908873   -1.259076    2.515127
H      -0.391468   -2.488491    1.351194
