18

C      -0.027771    1.339299   -0.174848
O      -0.071487   -0.066112   -0.189558
C      -1.333808   -0.576700    0.192906
C      -1.268114   -2.078413    0.111786
C      -2.469626   -3.007077    0.132051
C      -3.592583   -2.449193   -0.736531
O      -2.683070   -2.229965   -1.847833
C      -1.623517   -2.855757   -1.116867
H       0.977287    1.639498   -0.481684
H      -0.758227    1.779628   -0.872357
H      -0.228043    1.746531    0.829798
H      -1.579124   -0.255112    1.220216
H      -2.119325   -0.191215   -0.474000
H      -0.420497   -2.503389    0.645419
H      -2.563642   -3.828706    0.829105
H      -4.340176   -3.204911   -1.002748
H      -4.097753   -1.530172   -0.417278
H      -0.967234   -3.528812   -1.656159
