15

N      -0.088996    1.347451   -0.169620
C      -0.042714   -0.028824   -0.076433
O       0.851277   -0.706338   -0.542300
N      -1.124674   -0.570401    0.636721
C      -2.539137   -0.398649    0.169383
C      -2.467020   -1.577917   -0.865162
O      -3.626526   -2.265500   -0.321117
C      -2.970680   -1.726139    0.858900
C      -1.525365   -1.970597    0.327221
H       0.779148    1.769763   -0.460838
H      -0.595140    1.848376    0.543768
H      -3.055430    0.558340    0.112031
H      -2.302284   -1.582259   -1.941620
H      -3.402303   -1.901367    1.842457
H      -0.866357   -2.826255    0.444853
