20

C       0.245509    1.300324    0.299397
C      -0.157842   -0.135658   -0.090593
C      -1.687381   -0.273285   -0.227360
C       0.520228   -0.560918   -1.316089
C       1.057265   -0.898242   -2.340478
C       1.735087   -1.307041   -3.566168
N       2.581580   -2.480031   -3.364144
C       2.573226   -3.536248   -4.218757
O       1.930144   -3.598497   -5.245298
H       1.328275    1.386435    0.422773
H      -0.065230    2.010572   -0.473024
H      -0.234205    1.585866    1.240889
H       0.167410   -0.806088    0.717497
H      -2.063478    0.383100   -1.018045
H      -1.969499   -1.299374   -0.476537
H      -2.177910    0.003693    0.711217
H       1.020231   -1.581545   -4.348624
H       2.329603   -0.471449   -3.961231
H       3.114617   -2.541946   -2.511741
H       3.237744   -4.350835   -3.869096
