12

N       0.057046   -3.709290   -0.018553
C       0.046024   -2.546439   -0.011959
C       0.027126   -1.184507   -0.004155
C       0.000422    0.026571    0.002915
C      -0.036492    1.434061    0.011253
C      -1.161648    2.235013    0.030902
N      -0.689275    3.516925    0.031660
C       0.678286    3.451928    0.012832
N       1.108248    2.218232    0.000158
H      -2.212234    2.000033    0.043779
H      -1.249947    4.353341    0.043876
H       1.295960    4.337382    0.009419
