19

C      -0.033795    1.525061    0.092913
C       0.041274    0.016786    0.048980
C      -0.801489   -0.794037    1.008358
C       0.710609   -0.808934    1.142671
C       1.383485   -1.932335    0.437030
C       1.197652   -1.875118   -0.884743
C       0.418204   -0.637495   -1.296740
C      -0.795497   -0.960274   -2.152894
O      -0.941015   -0.604213   -3.294055
H       0.902529    1.978457   -0.251132
H      -0.839529    1.902274   -0.547490
H      -0.225534    1.881949    1.109626
H      -1.364461   -0.225177    1.741848
H      -1.281762   -1.711309    0.686646
H       1.167662   -0.347753    2.011617
H       1.935789   -2.708281    0.955274
H       1.546418   -2.602420   -1.608448
H       1.040568    0.038273   -1.897540
H      -1.572229   -1.568671   -1.638523
