14

N       0.029650    1.400087    0.159848
C      -0.093877    0.023997    0.122691
C      -1.196448   -0.708984   -0.142610
N      -1.181552   -2.087876   -0.032762
C      -0.089910   -2.669453    0.305926
O      -0.021105   -4.006790    0.427065
C       1.168891   -1.962584    0.585131
N       2.255991   -2.528665    0.897297
O       1.071548   -0.582090    0.474976
H       0.949089    1.731426   -0.100975
H      -0.705789    1.890840   -0.327856
H      -2.127588   -0.242671   -0.435529
H      -0.906828   -4.335812    0.217164
H       2.993828   -1.838983    1.046766
