21

O       0.105816    1.434954    0.098340
C       0.052998    0.009668    0.044931
C      -1.388100   -0.514892    0.112562
C      -1.433970   -2.022657   -0.167227
C      -0.882344   -2.333297   -1.552162
C      -0.992688   -3.750688   -2.074023
C      -1.848292   -2.674170   -2.679511
C       0.325083   -1.546813   -1.902808
C       0.765637   -0.516730   -1.177223
H      -0.285822    1.763432   -0.718985
H       0.593500   -0.304389    0.948903
H      -1.821415   -0.276888    1.088672
H      -1.984325    0.014557   -0.643301
H      -0.829759   -2.546894    0.586056
H      -2.456021   -2.404026   -0.068594
H      -0.169106   -4.145516   -2.659875
H      -1.469189   -4.481318   -1.428209
H      -2.908469   -2.667458   -2.448476
H      -1.608014   -2.327059   -3.678632
H       0.866202   -1.853301   -2.796472
H       1.671658    0.014352   -1.457988
