15

C      -0.071779    1.548380    0.899919
C      -0.650906    0.224134    0.426405
C      -0.468737   -0.277131   -0.956379
N       0.184785   -0.948680    0.181552
N       1.091152    1.986736    0.138219
N       2.284432    1.414853    0.210886
N       3.025290    2.061604   -0.637718
N       2.283882    3.022436   -1.219902
N       1.077884    2.977113   -0.741397
H      -0.809662    2.347374    0.803444
H       0.235574    1.479280    1.947507
H      -1.581361    0.002721    0.946585
H      -1.262936   -0.842986   -1.433833
H       0.142098    0.306124   -1.640104
H       1.172694   -0.702816    0.216191
