18

C       0.031289    1.534874   -0.270095
C       0.006840    0.045876   -0.014764
C       1.245644   -0.794766   -0.150713
C       0.643470   -0.583298    1.221830
C       1.335480    0.206176    2.258110
N       0.896864    0.207555    3.523965
N       1.755123    1.003744    4.148931
N       2.724521    1.527966    3.416048
C       2.479518    1.031225    2.203125
H       0.966432    1.990908    0.066474
H      -0.074922    1.745618   -1.339859
H      -0.787309    2.039885    0.253965
H      -0.918871   -0.437377   -0.316555
H       1.175241   -1.783057   -0.591390
H       2.175784   -0.279974   -0.370485
H       0.092627   -1.418383    1.640987
H       1.680784    1.187410    5.136214
H       3.122372    1.273094    1.372425
