16

C       0.006745    1.549597    0.060800
C      -0.014590    0.054468   -0.025075
C      -1.276253   -0.814810   -0.092711
C      -0.567409   -1.700972    0.934698
N      -0.774978   -2.726521    1.622337
N       0.607213   -0.840155    1.049335
C       1.192681   -0.754623   -0.330824
C       1.171914   -1.872399   -1.242068
N       1.154471   -2.752782   -1.991730
H       0.992476    1.910380    0.366189
H      -0.236480    1.994072   -0.910399
H      -0.727968    1.904524    0.790328
H      -2.155946   -0.319849    0.327130
H      -1.533773   -1.259751   -1.056821
H      -1.681107   -3.142082    1.400597
H       2.142614   -0.228478   -0.313848
