17

C      -0.051991    1.461953   -0.037706
C       1.347259    0.843089   -0.028931
C       2.271587    0.419544   -1.121843
C       2.163194   -0.850209   -1.523447
C       0.919118   -1.630844   -1.085452
O       0.938402   -2.092964    0.280949
C       0.149036   -1.153032    1.053159
C       0.109418   -0.015821    0.066410
O      -0.158172   -0.715786   -1.139973
H      -0.325323    2.043662    0.835945
H      -0.486885    1.804535   -0.970296
H       1.853775    0.989695    0.923877
H       3.051339    1.083219   -1.484121
H       2.837193   -1.302956   -2.242818
H       0.711028   -2.483783   -1.736002
H      -0.835061   -1.585128    1.272231
H       0.676054   -0.923938    1.982795
