15

N       0.073385    1.420738    0.215660
C       0.014075    0.031146    0.032940
C      -1.066750   -0.828582    0.082371
N      -0.569737   -2.087360   -0.075824
N       0.767509   -2.115157   -0.233311
C       1.111941   -0.838749   -0.160485
O       2.391178   -0.384359   -0.286714
C       3.414966   -1.226175    0.029869
N       4.594713   -0.854278   -0.206523
H       0.984636    1.779649   -0.041898
H      -0.637578    1.921170   -0.302463
H      -2.119768   -0.642888    0.218431
H      -1.081215   -2.949916   -0.124738
H       3.072471   -2.162868    0.475581
H       5.248127   -1.570809    0.103880
