25

C       0.009259    1.582894   -0.090231
C       0.043706    0.053472    0.035351
C       0.858879   -0.364962    1.267478
C      -1.386568   -0.519737    0.037028
C      -1.489551   -2.044516   -0.026325
C      -1.341994   -2.928284    1.268824
C      -2.705666   -3.563042    0.974733
C      -3.766735   -2.501026    0.949582
C      -2.877268   -2.667862   -0.253369
H       1.020550    2.000581   -0.139837
H      -0.529590    1.899215   -0.989679
H      -0.492915    2.035158    0.773703
H       0.554723   -0.343606   -0.854603
H       0.375770   -0.021664    2.190492
H       0.974744   -1.450032    1.336204
H       1.861787    0.074389    1.237745
H      -1.922849   -0.144019    0.919424
H      -1.919338   -0.111487   -0.833223
H      -0.796433   -2.415773   -0.789999
H      -0.505263   -3.627862    1.206846
H      -1.272703   -2.389508    2.219875
H      -2.947859   -4.612590    1.089091
H      -4.782679   -2.859755    0.816685
H      -3.689705   -1.627952    1.593429
H      -3.291296   -2.915030   -1.224530
