15

O      -0.085824    0.103121    0.500459
C      -0.074483    1.188586   -0.007927
C      -1.263368    2.071835   -0.300133
C      -0.746698    3.241612   -0.702706
N      -0.647206    4.548231   -0.062135
C       0.850302    4.225912    0.011820
C       1.253870    3.042664    0.962530
N       1.153327    1.995297   -0.173014
C       0.716793    3.119288   -1.035095
H      -2.219301    1.870808    0.162447
H      -0.778993    5.343917   -0.686348
H       1.510844    5.091013   -0.032478
H       2.289375    3.119576    1.296467
H       0.602955    2.849065    1.817443
H       1.067275    3.165812   -2.067126
