16

O      -0.053294   -0.035211   -0.010002
C       0.001412    1.176599   -0.018616
C       1.243616    1.939447   -0.044273
C       1.376371    3.272190    0.075024
C       2.813017    3.610397    0.035001
C       3.784181    2.815966    0.885376
C       3.243585    1.486516    1.375063
C       2.629247    1.340737   -0.054936
N       3.558291    2.465173   -0.553753
H      -0.922316    1.796766   -0.019666
H       0.579343    3.996405    0.192029
H       3.143267    4.594835   -0.279900
H       4.700164    3.290595    1.225114
H       4.065238    0.781972    1.517385
H       2.573329    1.452460    2.238147
H       2.742827    0.391129   -0.571050
