15

C       0.070891    1.382109    0.093257
N      -0.068015   -0.054987   -0.065411
C      -1.272033   -0.653290   -0.020598
N      -2.453391   -0.071420   -0.019914
C      -3.323467   -1.131480   -0.011768
C      -2.646298   -2.318144   -0.000097
O      -1.291426   -1.996264   -0.004635
C      -3.072027   -3.693649    0.019272
O      -2.346600   -4.666820    0.033337
H       1.039294    1.690361   -0.305652
H      -0.720807    1.878509   -0.469809
H      -0.001924    1.697407    1.141690
H       0.728318   -0.647430    0.104151
H      -4.393526   -0.984515   -0.010923
H      -4.181030   -3.785146    0.020401
