19

O      -0.127372   -0.067991   -0.073710
C       0.001141    1.129947   -0.088878
C       1.310343    1.872910   -0.064855
C       1.342290    3.098164    0.910932
C       1.930667    3.979277   -0.220830
C       1.604528    2.869073   -1.260183
C       2.787351    2.277318   -2.047723
C       3.321508    1.213077   -1.114439
C       2.530581    0.993196   -0.064809
H      -0.892609    1.799499   -0.122165
H       0.335467    3.409136    1.208331
H       1.944090    2.966940    1.812930
H       1.448153    4.946390   -0.378777
H       3.006165    4.145375   -0.117478
H       0.739468    3.106791   -1.882924
H       2.479066    1.841260   -3.007556
H       3.535311    3.045305   -2.284471
H       4.245125    0.679812   -1.313313
H       2.702762    0.254897    0.709419
