14

C       0.247759    1.581622   -0.048303
C       0.071729    0.074534    0.052612
N       0.959638   -0.748738   -0.819224
C       1.350358   -1.668924    0.274051
C       2.776514   -1.936147    0.406586
N       3.906600   -2.142497    0.532399
C       0.688070   -0.645192    1.261124
O       0.699691   -0.491874    2.437787
H       1.303309    1.850558    0.037779
H      -0.124091    1.946922   -1.010048
H      -0.312170    2.078617    0.749480
H      -0.994126   -0.193926   -0.022938
H       0.503253   -1.203382   -1.600821
H       0.800458   -2.621076    0.310818
