18

C      -0.100790    1.532981   -0.025588
N       0.024060    0.083303   -0.029314
C      -1.000282   -0.631903    0.125792
O      -2.275365   -0.182987    0.317306
C      -3.206049   -1.281519    0.310872
C      -2.379530   -2.537850    0.622998
C      -0.995537   -2.155857    0.093839
C      -0.731841   -2.609649   -1.340078
O      -1.488948   -3.283197   -1.988880
H       0.313827    1.930449    0.908783
H       0.505339    1.941724   -0.840494
H      -1.129764    1.894894   -0.128525
H      -3.978272   -1.064231    1.051546
H      -3.670881   -1.340804   -0.679686
H      -2.341920   -2.719311    1.699727
H      -2.776817   -3.422552    0.123313
H      -0.161074   -2.517668    0.702121
H       0.232960   -2.246052   -1.749363
