19

C      -0.034228    1.607093    0.207020
C      -0.011722    0.074012    0.051838
C       0.755745   -0.600329    1.202844
O       2.093838   -0.133441    1.151908
C      -1.360085   -0.480500   -0.039440
C      -2.471766   -0.943216   -0.092547
C      -3.809753   -1.466498   -0.144173
C      -4.221459   -2.461468   -1.154755
O      -3.996970   -2.853127    0.192758
H       0.987925    1.981380    0.289605
H      -0.518873    2.077395   -0.652215
H      -0.586513    1.893195    1.107735
H       0.533958   -0.170511   -0.869875
H       0.271222   -0.344931    2.157835
H       0.704231   -1.691891    1.082307
H       2.574724   -0.513086    1.892597
H      -4.583825   -0.814323    0.259492
H      -5.258575   -2.481354   -1.488007
H      -3.485739   -2.812140   -1.875980
