20

C       0.521660    1.074197    0.358783
O       0.821230    0.504970   -0.895708
C      -0.129660   -0.435611   -1.350325
C       0.040547   -1.814280   -0.701603
N      -0.943674   -2.729412   -1.271785
C      -0.528980   -3.521281   -2.417288
C      -0.742284   -4.178401   -1.084885
C       0.375883   -4.697379   -0.345744
C       1.282603   -5.145020    0.306081
H      -0.470767    1.551670    0.359549
H       0.550285    0.340749    1.177805
H       1.279286    1.837484    0.553637
H      -1.156774   -0.075016   -1.187007
H       0.022079   -0.523546   -2.431972
H       1.078687   -2.152556   -0.839097
H      -0.143075   -1.756289    0.376508
H      -1.265907   -3.655352   -3.204498
H       0.502611   -3.435495   -2.754745
H      -1.672767   -4.719606   -0.928200
H       2.089503   -5.541528    0.871191
