21

C       0.072549    1.445026   -0.000347
O      -0.014063    0.039817    0.029465
C       0.749391   -0.534345    1.067026
C       0.650740   -2.063359    0.969552
O       1.339678   -2.561435   -0.169724
C       0.547969   -2.673932   -1.338202
C       1.219422   -2.676725    2.170834
C       1.688646   -3.154404    3.170816
C       2.257151   -3.749703    4.371162
H       1.105912    1.786743   -0.167343
H      -0.553880    1.794606   -0.824460
H      -0.289819    1.894394    0.937747
H       1.808993   -0.245867    0.986393
H       0.379555   -0.205216    2.051853
H      -0.418300   -2.322505    0.898880
H       1.184381   -3.130249   -2.100909
H      -0.322583   -3.327353   -1.171893
H       0.193707   -1.699729   -1.691079
H       3.085719   -4.421231    4.120949
H       2.645132   -2.983870    5.051692
H       1.510041   -4.334531    4.918921
