17

N      -0.106389   -1.201784   -0.209206
C      -0.078458   -0.048259   -0.126211
C      -0.000114    1.393211    0.026334
C      -0.205924    2.022948    1.433312
C       0.530233    1.309294    2.579201
C       1.811805    2.019103    2.097225
C       2.473127    1.386054    0.856073
C       1.392126    2.086084    0.016021
N       0.982246    2.960998    1.203824
H      -0.661921    1.874843   -0.698425
H      -1.189558    2.451845    1.628823
H       0.200680    1.687357    3.549735
H       0.516564    0.216455    2.599621
H       2.463180    2.463026    2.851452
H       3.458211    1.816054    0.660672
H       2.543292    0.296528    0.802141
H       1.683662    2.565362   -0.919400
