19

C      -0.076083    1.600870   -0.078958
C       0.024842    0.073916    0.019509
C       0.865399   -0.341654    1.235895
O      -1.293607   -0.489946    0.115791
C       0.558573   -0.536407   -1.293288
C       1.985843   -0.178604   -1.695885
O       2.685892    0.634011   -1.148323
C       0.402049   -2.060604   -1.377075
O       0.770707   -2.697479   -2.330710
H       0.908205    2.052510   -0.214440
H      -0.721122    1.884642   -0.915948
H      -0.517571    2.005140    0.839418
H       0.406383    0.043877    2.153379
H       0.925034   -1.430405    1.326341
H       1.877177    0.062977    1.167467
H      -1.688282   -0.177405    0.936996
H      -0.066219   -0.165039   -2.121673
H       2.338834   -0.757055   -2.572718
H      -0.079161   -2.538395   -0.503913
