18

C       0.102398    1.337755    0.261979
O      -0.005752   -0.003559   -0.192368
C      -1.267482   -0.508208   -0.107933
C      -2.167128   -0.888118    1.045491
C      -3.353305   -0.134609    0.450831
C      -2.630982   -0.250878   -0.919858
C      -2.649554   -1.775553   -1.224424
C      -1.715706   -1.930976   -0.027035
H       1.151860    1.623139    0.163817
H      -0.512271    2.017107   -0.344508
H      -0.204346    1.426360    1.312601
H      -1.905226   -1.039404    2.084689
H      -4.349703   -0.586473    0.518860
H      -3.394977    0.897827    0.809672
H      -2.802514    0.478486   -1.708441
H      -3.626153   -2.273042   -1.203431
H      -2.135599   -2.011832   -2.160107
H      -1.126284   -2.787938    0.271978
