16

O      -0.071370    1.434256   -0.256520
C       0.018745    0.050891   -0.017371
C      -1.358757   -0.620596   -0.074702
C      -1.353754   -2.134941    0.257943
O      -2.255065   -2.253948    1.388580
C      -2.640361   -0.997222    1.677228
C      -3.548933   -0.791379    2.845345
O      -3.958561   -1.679529    3.544053
N      -2.230771   -0.027908    0.957638
H      -0.753759    1.769688    0.337961
H       0.668764   -0.368777   -0.793347
H       0.478826   -0.172233    0.960560
H      -1.796935   -0.410946   -1.056922
H      -1.733737   -2.766655   -0.547191
H      -0.370749   -2.503637    0.569825
H      -3.803970    0.275296    2.994750
