20

C      -0.225615    1.558066   -0.142676
C       0.168698    0.086157    0.034355
C       0.760906   -0.532261   -1.214060
C       1.893446   -1.497048   -1.183174
N       2.126894   -0.112543   -1.623309
C       2.129259    0.120588   -3.085453
C       0.733027   -0.176096   -3.610775
O       0.327333   -1.541631   -3.447086
C      -0.094720   -0.584246   -2.465881
H       0.643732    2.149000   -0.446256
H      -1.001988    1.684772   -0.904905
H      -0.611706    1.975131    0.792137
H       0.905421    0.003247    0.839956
H      -0.702496   -0.505260    0.345970
H       2.358990   -1.743959   -0.231692
H       1.896396   -2.289014   -1.924756
H       2.369497    1.175371   -3.263582
H       2.897116   -0.485730   -3.577364
H       0.346940    0.326069   -4.495905
H      -1.166641   -0.418765   -2.403159
