13

N      -0.381922    1.244767   -0.680192
C      -0.105905    0.145331   -0.166408
O       1.068134   -0.376202    0.339517
C       0.437375   -1.637325    0.707047
C       0.487477   -1.875967    2.207003
O       0.581517   -2.974092    2.681499
C      -0.919002   -1.119961    0.119108
C      -2.053461   -0.990932    1.017407
N      -2.944588   -0.895977    1.746180
H       0.420957    1.873165   -0.725156
H       0.872937   -2.482410    0.171562
H       0.428338   -0.952491    2.820363
H      -1.216761   -1.646143   -0.790692
