22

C      -0.707675    1.015866   -0.105313
C       0.020850   -0.307275    0.061344
C       1.370330   -0.522008   -0.698127
C       1.879831   -1.337937    0.528250
C       0.760025   -0.684271    1.397627
C       1.285633    0.528785    2.171099
C      -0.004705   -1.624035    2.324393
C       1.330056   -1.170690   -1.996406
N       1.278804   -1.703203   -3.022108
H      -0.060436    1.870184    0.115317
H      -1.070411    1.128521   -1.132547
H      -1.576636    1.073142    0.559177
H      -0.652125   -1.130922   -0.199662
H       1.913542    0.423102   -0.792904
H       1.719824   -2.409088    0.386214
H       2.916510   -1.168417    0.827584
H       1.857703    1.213657    1.536565
H       0.467610    1.099923    2.622932
H       1.948570    0.201357    2.979469
H       0.629972   -1.969840    3.148563
H      -0.872995   -1.121618    2.766759
H      -0.366102   -2.506967    1.787138
