17

C       0.120992    1.252450    1.034136
C      -0.224355    0.448088   -0.212996
O       0.774323   -0.567103   -0.488948
C      -1.574958   -0.203993   -0.142913
C      -1.910201   -1.404481   -0.720585
O      -1.207137   -2.305745   -1.432340
N      -3.235904   -1.608897   -0.443936
C      -3.657551   -0.522450    0.287449
N      -2.686315    0.331752    0.482751
H       1.095987    1.734506    0.922624
H      -0.644304    2.012275    1.208471
H       0.141079    0.603181    1.917567
H      -0.158391    1.107531   -1.088463
H       0.925281   -1.036607    0.340699
H      -0.295601   -1.961032   -1.423617
H      -3.772694   -2.412881   -0.723546
H      -4.673691   -0.428568    0.638120
