19

C      -0.063738   -1.143055    0.461726
C      -0.026866    0.019456    0.159004
C       0.037292    1.436160   -0.199527
C       1.440172    1.991225   -0.158059
C       2.079577    2.614811   -1.152320
C       3.478638    3.041851   -0.761769
C       3.565399    2.666605    0.718489
C       2.596551    3.311343    1.674403
C       2.274211    1.952019    1.082565
H      -0.103983   -2.171235    0.723278
H      -0.388017    1.582437   -1.199254
H      -0.601797    2.000872    0.495305
H       1.656542    2.819789   -2.130096
H       4.235448    2.510677   -1.355189
H       3.650906    4.112576   -0.933749
H       4.514805    2.327628    1.115441
H       2.888456    3.346889    2.719069
H       2.011194    4.162078    1.338561
H       2.239489    1.082110    1.728361
