18

O      -0.164811    1.480964    0.070249
C      -0.037026    0.075721    0.232153
C      -1.346058   -0.558077   -0.226702
C      -1.362479   -2.074943   -0.078925
C      -1.734206   -2.661121    1.278765
C      -2.705072   -2.758639    0.139023
C      -0.385219   -2.788602   -0.860239
C       0.433896   -3.370939   -1.522445
H       0.676008    1.886470    0.300008
H       0.795014   -0.325733   -0.364717
H       0.154933   -0.190642    1.284229
H      -2.166326   -0.130458    0.360671
H      -1.522933   -0.282097   -1.272186
H      -1.220908   -3.561105    1.594958
H      -1.943100   -1.954071    2.074518
H      -3.582358   -2.120936    0.150217
H      -2.852026   -3.725512   -0.326881
H       1.154635   -3.888971   -2.104839
