16

N      -0.071984    1.323821   -0.160739
C      -0.021764    0.076001    0.047530
C      -1.278508   -0.763899    0.093924
C      -1.193438   -1.927634    1.089220
C       0.107722   -2.695831    0.846771
C       1.286760   -1.740415    0.971343
O       1.175610   -0.584248    0.125955
H       0.876722    1.704544   -0.197002
H      -2.118708   -0.098120    0.296137
H      -1.426753   -1.172933   -0.915206
H      -1.207033   -1.543341    2.117399
H      -2.065589   -2.579718    0.982210
H       0.235360   -3.511547    1.566684
H       0.098811   -3.141839   -0.155485
H       1.385801   -1.400799    2.012802
H       2.227904   -2.214715    0.682264
