18

C      -0.046738    1.525535    0.010651
C       0.006996   -0.002437    0.002217
C       0.719774   -0.544590   -1.242119
O       0.847015   -1.965520   -1.180025
C       1.523056   -2.352281   -0.016946
O       0.857085   -1.978068    1.156005
C       0.730471   -0.557891    1.234454
C       1.640708   -3.822531   -0.025352
N       1.778586   -4.967515   -0.032097
H       0.959284    1.960504    0.008850
H      -0.576037    1.905984   -0.868604
H      -0.568774    1.896488    0.898265
H      -1.010891   -0.409971    0.004427
H       0.161970   -0.331726   -2.156982
H       1.719815   -0.086817   -1.334984
H       2.541657   -1.914249   -0.018983
H       1.731306   -0.101109    1.323570
H       0.180620   -0.354879    2.156344
