16

C       0.042992    1.241149   -0.698444
C      -0.090073    0.112776    0.297208
O       0.736425   -0.115582    1.155940
C      -1.306230   -0.750007    0.182620
C      -1.838716   -1.439733    1.436299
C      -1.258461   -2.281323    0.361999
O      -2.155047   -2.779939   -0.615735
C      -2.682506   -1.680995   -1.218362
N      -2.266676   -0.529144   -0.873310
H       0.965822    1.789301   -0.507513
H       0.037395    0.846042   -1.719617
H      -0.822569    1.907894   -0.627810
H      -1.213489   -1.309094    2.311821
H      -2.912346   -1.433404    1.588959
H      -0.361096   -2.873259    0.481174
H      -3.430516   -1.891658   -1.972378
