18

O      -0.088086    1.447578   -0.126359
C      -0.018821    0.052000   -0.103156
C       0.468655   -0.654666    1.224814
C      -0.905872   -1.323622    1.318681
C      -1.226178   -2.676358    1.901493
C      -1.147522   -2.705248    3.360795
C      -1.073630   -2.712311    4.559821
N      -1.879950   -0.204229    1.353503
C      -1.355793   -0.693273    0.047062
H      -0.726527    1.681548    0.561951
H       0.559460   -0.261558   -0.974773
H       1.282348   -1.361851    1.044877
H       0.730031    0.012287    2.049155
H      -2.230383   -2.984018    1.578880
H      -0.532430   -3.419013    1.485402
H      -1.011171   -2.720876    5.619795
H      -2.811320   -0.599070    1.478660
H      -2.034006   -1.046079   -0.721445
