20

O      -0.064252    0.141746   -0.704922
C      -0.022491    1.205134   -0.135632
C       1.200744    2.022288    0.019382
C       1.062232    3.541453    0.071542
C       1.481390    2.810000    1.300755
C       0.601281    2.718850    2.530711
N       0.965876    3.769824    3.474862
C       0.238362    5.030330    3.367767
C      -0.022986    4.094246    4.495924
H      -0.943952    1.652591    0.304386
H       2.063103    1.608747   -0.492018
H       1.787833    4.125060   -0.482828
H       0.049827    3.933693    0.037041
H       2.536889    2.862383    1.550966
H      -0.466760    2.765705    2.253247
H       0.760761    1.755864    3.031054
H       0.825180    5.931486    3.519484
H      -0.533895    5.113436    2.604493
H      -0.968273    3.553377    4.482032
H       0.370327    4.296848    5.487825
