19

O       0.065526    1.456552    0.617617
C      -0.024684    0.141046    0.060561
C       0.887253   -0.824956    0.778860
C       0.201377   -1.666692    1.553705
C      -1.290765   -1.476842    1.433859
C      -1.423913   -0.531581    0.212616
C      -2.585805    0.473427    0.281276
C      -3.889148   -0.174640    0.372522
C      -4.952654   -0.730742    0.446645
H       0.149312    1.357567    1.572562
H       0.227469    0.281417   -0.995534
H       1.967159   -0.753741    0.713937
H       0.642928   -2.406176    2.213901
H      -1.828862   -2.418361    1.284779
H      -1.708035   -1.036683    2.350909
H      -1.567620   -1.160004   -0.673159
H      -2.439919    1.140345    1.138606
H      -2.558011    1.122395   -0.602763
H      -5.899008   -1.207344    0.512040
