19

C       0.357082    1.413111    0.411440
N      -0.219183    0.209357   -0.197029
C       0.557524   -0.387098   -1.226101
C       0.225714   -0.309027   -2.569025
N      -0.817610    0.381622   -3.179572
N       1.178230   -0.996556   -3.238035
N       2.119045   -1.541528   -2.411262
C       1.750299   -1.165309   -1.192545
C       2.543175   -1.590205    0.002917
H       1.341683    1.256273    0.879300
H       0.473397    2.183030   -0.356995
H      -0.328868    1.795383    1.174462
H      -0.444262   -0.464819    0.526342
H      -1.461222    0.695097   -2.459446
H      -1.320340   -0.167367   -3.867541
H       1.281670   -1.100983   -4.231982
H       3.011063   -0.735591    0.505119
H       1.914994   -2.095593    0.745971
H       3.332432   -2.279794   -0.304190
