12

O      -0.068423    0.000708    0.003573
N      -0.009909    1.223648    0.006875
O       0.998901    1.896945    0.002421
C      -1.331789    1.942293    0.017492
N      -1.276951    3.255695    0.020098
C      -2.460624    3.873339    0.029560
N      -3.660832    3.291137    0.036469
C      -3.668242    1.956524    0.033503
C      -2.499133    1.198934    0.023755
H      -2.440631    4.959249    0.031808
H      -4.641683    1.473384    0.039101
H      -2.487686    0.119113    0.021174
