17

C      -0.091178    1.632227    0.007657
C       0.055146    0.116567    0.011570
C       1.101460   -0.580648   -0.911049
O       1.208629   -0.646082   -2.104390
C       1.751507   -1.292279    0.235247
O       2.255602   -2.571572    0.248860
C       2.139620   -0.265705    1.322492
C       0.701857   -0.619610    1.188763
O      -0.102004   -1.146781    2.168304
H       0.845708    2.135013    0.267020
H      -0.387044    1.974497   -0.988595
H      -0.856442    1.957471    0.718982
H      -0.907869   -0.362875   -0.207720
H       3.170747   -2.550819   -0.054492
H       2.650875   -0.765594    2.143157
H       2.539212    0.717441    1.086504
H       0.446549   -1.585316    2.827928
