15

O       0.779385    1.102977   -0.400364
C       0.246220   -0.114096   -0.118416
C      -0.408358   -0.895443   -1.024827
N      -0.696989   -0.724033   -2.367898
C       0.036497   -1.284681   -3.395101
N       1.047771   -2.027318   -3.197026
O      -0.835353   -2.047748   -0.401718
C      -0.434986   -1.977780    0.882312
C       0.227767   -0.815174    1.129840
H       1.268515    1.411235    0.367639
H      -1.494797   -0.166419   -2.627773
H      -0.373337   -1.002673   -4.373621
H       1.442581   -2.325323   -4.085825
H      -0.687316   -2.821727    1.503376
H       0.653520   -0.498321    2.069877
