19

O      -0.035413    1.408137    0.036486
C       0.059803   -0.010815    0.050054
C      -1.315582   -0.621054    0.039805
C      -2.305346   -0.389005    1.216155
C      -3.008842   -1.659079    0.744106
C      -2.971362   -1.665426   -0.791311
C      -1.777159   -2.138393    0.019741
C      -2.193260   -0.438023   -1.235013
O      -2.800230    0.814464   -1.486562
H      -0.697388    1.643481   -0.625845
H       0.644040   -0.383454   -0.808827
H       0.612402   -0.276037    0.958792
H      -1.807001   -0.540475    2.177549
H      -2.857552    0.558734    1.249755
H      -3.734367   -2.260528    1.276493
H      -3.652207   -2.274649   -1.371908
H      -1.248424   -3.079283    0.010741
H      -1.600774   -0.660611   -2.128214
H      -3.453304    0.976386   -0.797756
