19

O       0.756509   -0.336025   -1.119083
C      -0.080649   -0.025173   -0.034683
C      -1.406143   -0.744557   -0.172103
O      -1.639040   -1.482117   -1.099991
C       0.593284   -0.425031    1.281979
C       1.811347    0.385758    1.830322
C       0.820951    1.490228    2.300946
C       0.145123    0.135609    2.672287
C       1.541249   -0.315878    3.194246
H       0.241084   -0.935507   -1.681914
H      -0.317371    1.051903   -0.032179
H      -2.151047   -0.561726    0.628762
H       0.762497   -1.507941    1.263742
H       2.772043    0.522443    1.334549
H       1.154281    2.104323    3.141526
H       0.346143    2.111960    1.540401
H      -0.816412   -0.010220    3.167904
H       1.725827   -1.392455    3.240265
H       1.912293    0.195714    4.085851
