20

C      -0.000234    1.649615   -0.528198
C       0.227788    0.156519   -0.302490
C       1.621704   -0.357658   -0.700014
C       1.686639   -1.689107    0.038715
O       1.013992   -1.464211    1.282542
C       0.104393   -0.363400    1.162806
C       0.385498    0.697502    2.237731
N       1.582599    0.559123    2.869558
O      -0.411329    1.589440    2.461752
H       0.765479    2.251366   -0.029780
H       0.035863    1.873932   -1.599129
H      -0.967984    1.968830   -0.135740
H      -0.514097   -0.399165   -0.889629
H       1.744834   -0.461515   -1.780999
H       2.395394    0.324586   -0.329304
H       1.173414   -2.482080   -0.525476
H       2.701573   -2.031859    0.260863
H      -0.916450   -0.711823    1.356962
H       2.062013   -0.321510    2.773353
H       1.756582    1.137110    3.675812
