21

C      -0.454283    1.477193   -0.079232
C       0.216421    0.111218    0.122759
C       0.787778   -0.467328   -1.160671
C       2.000119    0.209158   -1.691704
O       2.591446    1.108476   -1.145631
C       0.766142   -1.987117   -1.453939
C       0.220674   -2.981760   -0.453242
C      -0.130090   -1.064863   -2.220658
O      -1.493724   -1.002880   -1.924969
H       0.257212    2.207006   -0.473073
H      -1.295449    1.395908   -0.773061
H      -0.834870    1.859676    0.873072
H       1.039583    0.210739    0.838819
H      -0.504153   -0.585138    0.555243
H       2.360638   -0.197106   -2.668027
H       1.634647   -2.341923   -2.004940
H      -0.767512   -2.689603   -0.092971
H       0.126997   -3.968020   -0.921139
H       0.883764   -3.088407    0.410785
H       0.115292   -0.861287   -3.263785
H      -1.922016   -1.767945   -2.324177
