17

O       0.216387    1.389448    0.141323
C       0.106139   -0.021283    0.032320
C      -1.350250   -0.494700    0.105001
C      -1.476295   -2.014492    0.023847
C      -2.886921   -2.637714   -0.083951
O      -2.538379   -3.223663   -1.377736
C      -1.282572   -2.655008   -1.340273
N      -0.353274   -2.671037   -2.182575
H      -0.100279    1.772995   -0.682316
H       0.576349   -0.401149   -0.884470
H       0.668328   -0.430575    0.879708
H      -1.793093   -0.135876    1.041647
H      -1.921808   -0.037208   -0.714016
H      -0.858636   -2.493707    0.790074
H      -3.142069   -3.413153    0.641767
H      -3.711202   -1.927133   -0.189883
H      -0.609320   -3.206270   -3.014150
