19

C      -0.083722    1.544188   -0.040090
C       0.059898    0.041805    0.008604
O      -1.055912   -0.557576   -0.580795
C       1.401011   -0.615341   -0.150946
C       0.701390   -0.668165    1.214335
C       1.297626    0.097009    2.390999
O       2.364106   -0.602917    3.004444
C       0.098508   -1.916673    1.592456
C      -0.438032   -2.945517    1.920420
H       0.811656    2.057853    0.314719
H      -0.258148    1.846867   -1.077537
H      -0.942242    1.871719    0.553763
H      -1.228879   -1.396543   -0.133930
H       1.442804   -1.534030   -0.724482
H       2.291083    0.003166   -0.206501
H       1.721372    1.043290    2.047134
H       0.502170    0.329600    3.115222
H       2.020884   -1.457669    3.288769
H      -0.893479   -3.860812    2.209000
