21

C      -0.113916    1.498000    0.022490
C       0.041625    0.004160    0.009254
C       0.462052   -0.720952   -1.290761
C       0.491148   -2.162099   -0.701309
C       1.919381   -2.474098   -0.226020
C       2.195519   -1.343766    0.815191
C       0.792861   -0.812412    1.122356
C      -0.263460   -1.823014    0.628640
O      -1.179610   -0.746519    0.330656
H       0.849002    1.983048   -0.169080
H      -0.815997    1.818904   -0.754511
H      -0.490165    1.842629    0.989839
H      -0.305731   -0.580000   -2.054911
H       1.427926   -0.402265   -1.694525
H       0.036635   -2.928689   -1.329308
H       1.960271   -3.457337    0.257269
H       2.641769   -2.487756   -1.047373
H       2.685156   -1.729602    1.713707
H       2.849595   -0.563449    0.411528
H       0.617380   -0.404911    2.117999
H      -0.688109   -2.631265    1.224207
