15

C      -0.043827    1.411734    0.068317
N      -0.007776   -0.034389    0.004982
C      -0.033632   -0.849682   -1.068300
N       0.017453   -2.113862   -0.692458
C       0.078832   -2.014602    0.662495
C       0.152747   -3.206941    1.573450
C       1.459557   -3.869289    1.537211
N       2.488797   -4.392876    1.518805
N       0.064449   -0.776741    1.134688
H       0.863122    1.789114    0.546390
H      -0.109098    1.804638   -0.947601
H      -0.913406    1.740622    0.642067
H      -0.091691   -0.482820   -2.082275
H      -0.052507   -2.886252    2.598604
H      -0.612040   -3.936792    1.287656
