15

N       0.061643    1.333904    0.161281
C      -0.040103   -0.011067   -0.005248
N       1.103260   -0.728036   -0.203293
H       1.892738   -0.442215    0.360168
H       0.921289   -1.726335   -0.200872
N      -1.219581   -0.605483   -0.000080
C      -2.514848   -0.092540   -0.029396
C      -3.417364   -1.180888    0.009795
O      -4.648017   -1.257461   -0.008760
C      -2.463396   -2.340122    0.085657
N      -1.210234   -2.016432    0.080010
H       0.801965    1.805946   -0.333576
H      -0.794666    1.852522    0.268606
H      -2.703768    0.956545   -0.176752
H      -2.746750   -3.384385    0.144455
