19

C      -0.129649    1.526324    0.049687
C       0.076133    0.009447    0.064614
O      -1.148360   -0.681034    0.291945
C       0.766209   -0.479725   -1.187756
C       0.073212   -0.921750   -2.449018
C       0.940890   -1.902303   -1.695996
C       2.456245   -1.610480   -1.924397
O       2.602123   -0.504758   -2.829775
C       2.297064   -0.240636   -1.454068
H       0.823144    2.055875   -0.051908
H      -0.760800    1.819302   -0.798124
H      -0.611321    1.853625    0.975271
H       0.700943   -0.252495    0.929527
H      -1.802711   -0.316903   -0.314133
H      -0.989250   -1.114238   -2.340594
H       0.383729   -0.543164   -3.414532
H       0.556118   -2.812549   -1.256683
H       3.281371   -2.307956   -1.849490
H       2.958258    0.423874   -0.909774
