18

C      -0.043012    1.434744    0.024880
C       0.048400   -0.065879    0.017054
C       1.315266   -0.812792   -0.322608
C       0.745229   -0.854935    1.098728
C       0.156023   -2.259442    0.841662
C      -1.261347   -2.070319    0.237990
C      -0.705123   -2.029168   -1.148981
C       0.740459   -2.216217   -0.615659
N      -1.144925   -0.795046   -0.483116
H       0.879964    1.880196    0.408379
H      -0.213197    1.819769   -0.985558
H      -0.871752    1.771075    0.655958
H       2.216859   -0.352278   -0.709697
H       1.120462   -0.433331    2.024056
H       0.371557   -3.087108    1.512223
H      -2.223691   -2.384795    0.626967
H      -1.126011   -2.303579   -2.110155
H       1.376232   -3.012804   -0.992991
