16

O      -0.088451    1.465506   -0.021357
C      -0.025525    0.051216    0.051378
C      -1.439949   -0.493367   -0.061543
C      -1.399898   -2.011918    0.024278
O      -0.505292   -2.631693   -0.916633
C       0.651968   -2.044829   -1.309446
O       1.475991   -2.700711   -1.884484
C       0.809001   -0.543814   -1.085534
H       0.807357    1.813165    0.041114
H       0.397561   -0.263074    1.020581
H      -2.070425   -0.101732    0.742554
H      -1.875218   -0.169798   -1.013962
H      -1.097764   -2.330079    1.030732
H      -2.379077   -2.448991   -0.182985
H       0.493400   -0.059521   -2.019031
H       1.878361   -0.346660   -0.970841
