20

C       0.601781    0.140391    0.905620
C      -0.402091   -0.050411   -0.235999
O      -1.076658    1.161869   -0.526967
C       0.256078   -0.616281   -1.500437
C      -0.289852   -0.249210   -2.813547
O       0.897327    0.391486   -2.301922
C       1.030753   -1.894289   -1.339054
C       2.076103   -2.283386   -2.312929
N       2.454279   -1.854137   -0.953364
H       1.073687   -0.801758    1.196969
H       1.392538    0.837110    0.604336
H       0.088407    0.563510    1.772385
H      -1.182769   -0.753687    0.080416
H      -0.423506    1.732702   -0.953160
H      -0.119783   -0.910087   -3.660360
H      -1.164460    0.392395   -2.864345
H       0.471682   -2.681680   -0.836066
H       2.247625   -3.333776   -2.528832
H       2.276991   -1.599331   -3.131845
H       2.773741   -0.888475   -1.005133
