18

C       1.342907    0.154571    0.841102
N       0.102503   -0.014120    0.098885
C      -0.998678    0.719659    0.443695
O      -1.070642    1.480154    1.385158
C       0.148484   -0.819751   -1.091684
C       0.289323   -2.375771   -1.016767
C      -1.158630   -2.497650   -0.496061
C      -1.125981   -1.491334   -1.674328
O      -0.228228   -2.413358   -2.401879
H       1.676475   -0.798059    1.267389
H       2.136064    0.539208    0.188502
H       1.155877    0.866849    1.644391
H      -1.846084    0.537312   -0.243303
H       0.795310   -0.390493   -1.864250
H       1.168934   -2.978442   -0.792129
H      -1.646554   -3.445318   -0.723355
H      -1.384428   -2.126267    0.504245
H      -1.944489   -1.045167   -2.238571
