19

C      -0.017375    1.478815   -0.073302
C      -0.022739    0.027095    0.025408
C      -0.037272   -1.173323    0.103844
C      -0.025968   -2.624849    0.207593
O      -1.337637   -3.130030    0.000835
C      -1.406130   -4.554318   -0.004196
C      -1.443352   -5.133900    1.419428
C      -2.596659   -4.940935   -0.761287
C      -3.574664   -5.292317   -1.363295
H       0.592578    1.820359   -0.916729
H      -1.032610    1.862629   -0.221795
H       0.381517    1.940306    0.836653
H       0.663578   -3.051061   -0.541622
H       0.361665   -2.919147    1.196258
H      -0.521118   -4.954657   -0.528038
H      -0.533773   -4.875481    1.968690
H      -2.307049   -4.735976    1.957260
H      -1.522561   -6.223799    1.382266
H      -4.437583   -5.591179   -1.905372
