18

O       0.054029   -0.004695    0.139105
C       0.039766    1.204107    0.038654
N      -1.080354    1.999847   -0.048835
C      -0.804365    3.407317   -0.015030
C      -0.141879    3.960428    1.224631
C       0.701266    3.534423    0.036312
C       1.234158    2.130645    0.013043
C       2.490658    1.662253    0.711881
C       2.444622    1.698148   -0.785488
H      -1.988227    1.609959    0.150193
H      -1.419885    4.036409   -0.647875
H      -0.228747    5.026464    1.406495
H      -0.134771    3.340826    2.115531
H       1.205120    4.300649   -0.540627
H       3.077492    2.411562    1.231508
H       2.432099    0.691783    1.192460
H       2.365806    0.753813   -1.312431
H       2.998801    2.474321   -1.302844
