16

C       0.049247    1.479717   -0.010171
C       1.283286    0.659318    0.046399
C       1.945478    0.366424    1.409832
C       0.831111   -0.368379    2.101770
N       0.624375   -0.902041    3.295340
N      -0.619016   -1.429033    3.176919
C      -1.193822   -1.245925    1.947168
C      -0.255341   -0.545733    1.229251
N      -0.065887    0.000085   -0.069680
H      -0.289218    1.965807    0.901630
H      -0.214208    1.991462   -0.931240
H       1.902199    0.590264   -0.841958
H       2.838081   -0.255362    1.278668
H       2.259409    1.278765    1.927736
H      -1.011583   -1.917813    3.962831
H      -2.179528   -1.617542    1.720505
