17

C       0.037266    1.380871    0.040691
N       0.290865   -0.053927    0.061519
C       0.591772   -0.643085   -0.998594
O       0.754678   -0.186614   -2.293515
C       0.957276   -1.550046   -2.787796
C       0.849337   -2.103894   -1.347834
C       2.102480   -2.721619   -0.743585
O      -0.282817   -2.936717   -1.194350
H       0.789473    1.888044    0.655194
H       0.049812    1.821059   -0.962962
H      -0.936648    1.577395    0.501278
H       0.140487   -1.858612   -3.442544
H       1.925422   -1.646059   -3.284031
H       2.983498   -2.098825   -0.926231
H       1.981458   -2.824941    0.339184
H       2.272010   -3.713772   -1.172155
H      -0.597080   -2.824117   -0.289527
