22

C      -0.692297    1.496182   -0.190471
N      -0.997501    0.081835   -0.220434
C      -0.156088   -0.857755    0.267776
O       0.929004   -0.618495    0.775534
C      -0.652101   -2.322307    0.149361
C       0.368638   -3.088260   -0.705952
C      -0.737425   -2.898026    1.571099
O      -1.939496   -2.270081   -0.480158
C      -2.610063   -3.491144   -0.706054
H      -0.657956    1.918209   -1.201382
H      -1.435428    2.052102    0.392542
H       0.286429    1.611683    0.277171
H      -1.862358   -0.254313   -0.612913
H       1.368391   -2.911603   -0.305182
H       0.174784   -4.164592   -0.696783
H       0.339910   -2.734414   -1.740992
H      -1.540914   -2.410620    2.131590
H      -0.921199   -3.976092    1.558616
H       0.207654   -2.712377    2.084602
H      -3.558868   -3.239130   -1.186426
H      -2.049978   -4.158525   -1.374015
H      -2.825893   -4.028540    0.226625
