20

C       0.006941    1.506999   -0.019832
C       0.022348   -0.005911    0.022911
N      -0.837659   -0.710468    0.988900
C       0.630095   -0.719094    1.180519
C       1.350603   -2.041788    0.950129
C       2.124058   -2.059575   -0.383212
C       1.248047   -1.642582   -1.546442
O      -0.125265   -2.039074   -1.470651
C       0.175564   -0.653124   -1.334561
H       0.885126    1.900984   -0.544281
H      -0.883255    1.876529   -0.542940
H       0.005941    1.926039    0.991179
H      -1.263347   -0.029460    1.614605
H       1.025229   -0.091236    1.976678
H       2.042607   -2.242555    1.773702
H       0.607338   -2.842265    0.939552
H       2.987958   -1.381677   -0.343839
H       2.524718   -3.063657   -0.565128
H       1.689252   -1.729371   -2.540081
H      -0.152436   -0.043564   -2.178122
