17

C       0.005274    1.615932   -0.003138
C       0.013975    0.078212   -0.055541
C       0.645405   -0.525834    1.227503
C      -1.426872   -0.469487   -0.142070
O      -2.414920    0.206763   -0.065678
C       0.719307   -0.414712   -1.235338
C       1.272661   -0.844147   -2.223535
C       1.903731   -1.318426   -3.331479
C       2.462893   -1.741090   -4.314717
H       1.025757    1.996960    0.082868
H      -0.450795    2.032860   -0.903100
H      -0.576931    1.952567    0.857954
H       0.117136   -0.157611    2.112121
H       0.597002   -1.618337    1.216723
H       1.695857   -0.233109    1.297585
H      -1.475737   -1.573167   -0.268670
H       2.955016   -2.110823   -5.179917
