17

C      -0.036650    1.547968    0.059867
C       0.117405    0.060829    0.005158
N      -0.820450   -0.862201    0.682420
C       0.626897   -0.935638    0.990676
C       1.291206   -1.770459   -0.145994
N       0.504278   -2.799910   -0.823190
C      -0.112805   -1.921743   -1.711408
O      -0.958965   -2.080402   -2.544368
C       0.744530   -0.741659   -1.176629
H       0.885730    2.051582   -0.247871
H      -0.839993    1.883922   -0.605691
H      -0.278835    1.879088    1.075802
H      -1.263970   -0.342787    1.439450
H       0.991562   -0.804112    2.002587
H       2.354287   -1.979516   -0.029616
H       0.097562   -3.641586   -0.437898
H       1.390409   -0.193635   -1.859144
