21

C      -0.077785    1.544816    0.195922
C       0.042003    0.024529   -0.009653
C      -1.343644   -0.592491    0.048066
O      -1.725696   -1.337831    0.914664
C       0.715454   -0.353796   -1.358561
O       0.019749    0.227285   -2.461568
C       2.194923   -0.040870   -1.381630
C       3.193561   -1.065944   -0.902468
C       3.085279   -0.748201   -2.371307
H       0.903390    2.028578    0.182036
H      -0.696146    1.998439   -0.585178
H      -0.540719    1.767735    1.161241
H       0.623488   -0.419436    0.805117
H      -2.007812   -0.298470   -0.794725
H       0.599695   -1.436575   -1.498570
H       0.360255    1.117760   -2.592941
H       2.443137    0.997479   -1.171869
H       4.064014   -0.717187   -0.358470
H       2.811975   -2.022282   -0.560048
H       2.623561   -1.484860   -3.019951
H       3.885248   -0.184167   -2.837541
