19

O      -0.131363    1.439086   -0.238785
C       0.020885    0.052148    0.050054
C      -1.359559   -0.575044   -0.044487
C      -2.053909   -0.600107   -1.451355
C      -1.145610   -1.622838   -2.160052
C      -0.791256   -2.532690   -1.253385
C      -1.461699   -2.132388    0.077896
C      -2.985925   -2.260368   -0.129070
C      -3.336285   -1.350840   -1.037745
H       0.739080    1.846314   -0.213027
H       0.720221   -0.426340   -0.646949
H       0.409068   -0.097671    1.071587
H      -2.005179   -0.081174    0.687389
H      -2.191322    0.355191   -1.954117
H      -0.903253   -1.597619   -3.213909
H      -0.198296   -3.426446   -1.393832
H      -1.060546   -2.599985    0.977665
H      -3.606550   -2.998953    0.359966
H      -4.313611   -1.168996   -1.464087
