13

N       0.063125    1.392374    0.126592
C       0.005065    0.024126    0.033475
N      -1.120460   -0.648216    0.021797
H      -1.984942   -0.130267    0.082322
C      -1.200393   -2.048853   -0.026194
C      -0.065509   -2.864342   -0.019718
O      -0.012143   -4.095396   -0.059188
C       1.257583   -2.113355    0.044138
O       2.366535   -2.508287    0.087194
O       1.146232   -0.611464    0.028214
H       0.993070    1.755240   -0.026836
H      -0.653836    1.916329   -0.354457
H      -2.198869   -2.454012   -0.067317
