14

O       0.004148    1.443701   -0.060339
C       0.069340    0.031821   -0.036988
C       0.726687   -0.515778    1.225166
C      -0.070873   -1.335348    1.909233
C      -1.395903   -1.451139    1.211407
O      -2.098913   -0.182494    1.109121
C      -1.319098   -0.623081   -0.006078
C      -2.222328   -2.623418    1.339143
N      -2.857421   -3.581220    1.460265
H      -0.584650    1.700636    0.661505
H       0.617030   -0.259466   -0.939764
H       1.710098   -0.181830    1.533639
H       0.140934   -1.832089    2.846693
H      -1.872721   -0.840807   -0.913757
