18

C      -0.128090    1.492670    0.012495
C       0.036608   -0.020739   -0.019852
C       0.805933   -0.578478   -1.229482
C       1.252847   -1.955918   -0.727734
C       1.569847   -1.690940    0.775419
N       0.773379   -0.511465    1.164215
C       1.262631   -2.860278    1.616740
N       1.037524   -3.790108    2.265092
H       0.846699    1.993936   -0.031389
H      -0.720736    1.835894   -0.840360
H      -0.636789    1.810460    0.927642
H      -0.963387   -0.478646   -0.007753
H       0.199613   -0.635758   -2.137694
H       1.675047    0.057235   -1.442702
H       0.435640   -2.678088   -0.811113
H       2.115418   -2.368563   -1.254366
H       2.641847   -1.491361    0.895857
H       1.380733    0.212462    1.527223
