16

C      -0.019378    1.544852    0.022350
C      -0.023838   -0.002515   -0.022474
C       0.762593   -0.569491   -1.238604
C       1.990831   -1.277463   -0.641920
O       2.899078   -1.760142   -1.271170
C       1.833852   -1.247429    0.833402
C       0.733340   -0.575545    1.174804
C      -1.415265   -0.476786   -0.002022
N      -2.511724   -0.841971    0.022029
H       1.011972    1.906656   -0.007294
H      -0.563086    1.953611   -0.833107
H      -0.492251    1.911521    0.937276
H       0.176785   -1.296797   -1.806469
H       1.073561    0.212862   -1.934754
H       2.547556   -1.709373    1.503043
H       0.374965   -0.396859    2.182461
