18

C      -0.235249    1.281308   -0.364516
C       1.157076    1.191182    0.181533
C       0.295739   -0.056587    0.116324
C      -0.228468   -0.707655    1.345325
N      -0.297980   -2.047132    1.300822
C      -0.760714   -2.692438    2.374040
C      -1.177158   -2.061193    3.540549
C      -1.105122   -0.671490    3.586977
C      -0.626476    0.013886    2.479848
H      -0.996579    1.762237    0.240278
H      -0.367603    1.410921   -1.432840
H       1.991422    1.258208   -0.507675
H       1.354791    1.610067    1.162419
H       0.548411   -0.782047   -0.647703
H      -0.799667   -3.776893    2.293780
H      -1.544178   -2.639371    4.380762
H      -1.417661   -0.129405    4.473792
H      -0.561921    1.096576    2.494542
