22

C      -0.864450    1.095825   -0.115654
C       0.153655   -0.033136   -0.071090
C       1.549611    0.169857   -0.736286
C       2.153233   -0.610721    0.432934
C       2.976727   -1.832663    0.362567
N       3.506976   -0.591864    0.974363
C       0.881430   -0.421743    1.269209
C       1.012011    0.692417    2.300765
O       0.446319   -1.626628    1.872825
H      -0.444721    2.038787    0.250111
H      -1.212274    1.266607   -1.140441
H      -1.745515    0.863808    0.493698
H      -0.291613   -0.956884   -0.453598
H       1.691682   -0.234079   -1.741722
H       1.853844    1.223230   -0.734369
H       2.791774   -2.640051    1.063811
H       3.355716   -2.138673   -0.609895
H       4.134015   -0.123520    0.323563
H       1.380652    1.619605    1.852847
H       0.044488    0.912521    2.769137
H       1.723646    0.389594    3.073317
H      -0.181948   -1.408796    2.568585
