17

C      -0.397083    1.443658   -0.012440
C       0.080805    0.009286   -0.049130
O       1.308810   -0.153886   -0.797166
C       2.015825   -0.684392    0.331770
C       0.749959   -0.597805    1.233018
C       0.835317    0.205968    2.428385
C       0.907097    0.889270    3.423551
C       1.019418    1.676661    4.623943
O       0.336017    2.642315    4.877252
H       0.359005    2.102797    0.421945
H      -0.612458    1.782494   -1.030271
H      -1.312510    1.528790    0.581882
H      -0.701218   -0.646773   -0.452497
H       2.385790   -1.701080    0.156467
H       2.847550   -0.042942    0.643426
H       0.346093   -1.581938    1.486034
H       1.803277    1.323765    5.324858
