21

C       0.059811    1.303955   -0.563497
C      -0.003859   -0.009725    0.181011
O       0.889292   -0.395687    0.902217
C      -1.278909   -0.865915    0.014218
C      -2.018818   -0.842025    1.366898
O      -2.077544   -0.263653   -0.995485
C      -0.839914   -2.289604   -0.401936
C      -1.956780   -3.324855   -0.432016
O      -2.979511   -2.866480   -1.324701
H       0.982063    1.824802   -0.304270
H       0.009124    1.120287   -1.640987
H      -0.813622    1.919301   -0.326880
H      -2.265327    0.189240    1.635861
H      -2.958528   -1.397190    1.297966
H      -1.400331   -1.271137    2.159613
H      -2.710548   -0.938686   -1.277576
H      -0.392985   -2.223405   -1.400844
H      -0.059753   -2.629466    0.285021
H      -1.553433   -4.287669   -0.776893
H      -2.367617   -3.479940    0.574902
H      -3.741905   -3.447554   -1.252983
