20

C      -0.122360    1.484310   -0.211860
C       0.133741   -0.003752   -0.108863
C       1.409885   -0.698603   -0.453177
C       2.636397    0.067865    0.063358
N       2.131372   -0.041072    1.448148
C       2.131985    1.065787    2.383188
C       0.915295   -0.696642    1.017681
C       0.284630   -1.766030    1.803858
O       0.550023   -2.018351    2.955065
H       0.771142    2.078013   -0.014232
H      -0.468133    1.734904   -1.221062
H      -0.896005    1.799859    0.495121
H      -0.728790   -0.605871   -0.395137
H       1.453479   -1.552062   -1.117446
H       3.583980   -0.463302   -0.077023
H       2.746658    1.089655   -0.324438
H       1.632160    1.981031    2.025348
H       1.636928    0.737584    3.301084
H       3.166459    1.322421    2.635807
H      -0.502083   -2.329847    1.249283
