17

C      -0.819934   -0.170597   -1.124490
C      -0.143523    0.274926   -0.237054
C       0.681475    0.829838    0.829338
C       1.727658    1.780071    0.319353
O       2.526783    2.469099    1.283252
C       2.960585    3.323445    0.183692
C       3.861779    2.389298   -0.663799
C       2.566063    1.635338   -0.964812
C       1.721469    2.881955   -0.682061
H      -1.422861   -0.571181   -1.901383
H       0.049757    1.357861    1.555153
H       1.177160    0.019558    1.380968
H       3.251604    4.322512    0.500319
H       4.244139    2.894039   -1.554799
H       4.670389    1.879728   -0.130317
H       2.375356    0.859397   -1.693966
H       0.947767    3.393698   -1.236395
