20

C      -0.214990    1.586583   -0.000493
C       0.008977    0.072150   -0.036641
O      -1.243106   -0.596530    0.140367
C       0.760145   -0.444454   -1.301450
C       2.120532   -0.890366   -0.773013
C       2.950866    0.276435   -0.182958
C       2.347125   -0.113408    1.157441
C       0.900002   -0.441857    1.088202
N       1.872796   -1.455967    0.632282
H       0.721520    2.141047   -0.102461
H      -0.875572    1.897342   -0.819519
H      -0.687827    1.874476    0.943097
H      -1.846286   -0.275028   -0.538132
H       0.206857   -1.302933   -1.693295
H       0.847317    0.307464   -2.092687
H       2.651307   -1.589907   -1.417857
H       4.020648    0.056042   -0.201739
H       2.792583    1.287262   -0.573660
H       2.851755   -0.030744    2.115846
H       0.400917   -0.681223    2.021787
