20

N      -0.423291    1.234116    0.125238
C       0.009554   -0.158057    0.093586
C       0.718353   -0.527379   -1.156359
N       1.280326   -0.775785   -2.136728
C       0.925189   -0.452012    1.307552
N       2.086354    0.418128    1.206473
C       0.131062   -0.357171    2.639912
C      -0.029611   -1.902137    2.633600
C       1.086544   -1.989260    1.557853
H       0.404541    1.818283    0.209370
H      -0.904506    1.484758   -0.731842
H      -0.873809   -0.803787    0.161410
H       2.647488    0.355580    2.049296
H       2.680730    0.132047    0.431630
H       0.777199   -0.012932    3.453124
H      -0.765921    0.263130    2.622728
H       0.153109   -2.420858    3.576326
H      -1.004484   -2.220712    2.255695
H       0.932865   -2.657941    0.706151
H       2.065762   -2.206804    1.993933
