17

O       0.134142    1.506530    0.005240
C       0.053766    0.137907    0.090528
C      -0.389983   -0.570703    1.324456
C      -1.316293   -0.579735    0.104944
C      -2.527212    0.268364    0.120518
N      -2.513186    1.433562    0.643958
N      -3.644783   -0.320872   -0.509484
C      -4.888339    0.239165   -0.678508
O      -5.224104    1.341803   -0.311415
H      -0.713527    1.859589    0.352638
H       0.814335   -0.341125   -0.519121
H       0.073430   -1.512813    1.597294
H      -0.721746    0.047017    2.152166
H      -1.392628   -1.509869   -0.449366
H      -3.412070    1.902359    0.553851
H      -3.525837   -1.258114   -0.863263
H      -5.573414   -0.453271   -1.203773
