21

C       0.062019    1.548697   -0.550325
C       0.039618    0.113975   -0.061691
C       1.163903   -0.786708   -0.426370
N       1.024270   -0.301414    0.959803
C      -1.351834   -0.465754    0.072866
C      -1.609806   -1.797546    0.829664
C      -2.572467   -0.995079    1.703957
C      -1.875430    0.129764    2.350567
N      -2.327553    0.298950    0.948270
H       1.089075    1.912282   -0.659995
H      -0.432962    1.638883   -1.523528
H      -0.468567    2.203196    0.148031
H       0.995859   -1.853084   -0.553302
H       1.961822   -0.380137   -1.042454
H       1.683173    0.455185    1.127854
H      -1.797664   -0.493529   -0.927201
H      -2.093095   -2.552035    0.206641
H      -0.761212   -2.244906    1.352320
H      -3.575889   -1.302769    1.979958
H      -2.447278    0.748925    3.035131
H      -0.815459    0.049072    2.567396
