22

C       0.104313    1.540954   -0.087487
C       0.007069    0.027078    0.138128
C      -1.411039   -0.551296    0.036252
C      -2.337264    0.015742    1.115734
C      -2.107357   -0.514596   -1.378559
C      -2.265068   -2.038558   -1.328729
C      -0.916027   -2.691068   -1.234889
C      -1.519777   -2.093186    0.005126
H       1.148456    1.869075   -0.074525
H      -0.319141    1.826269   -1.056911
H      -0.425803    2.106450    0.684725
H       0.652659   -0.478002   -0.589438
H       0.415841   -0.222381    1.127138
H      -2.481535    1.094709    1.001178
H      -3.323215   -0.458315    1.067374
H      -1.929415   -0.165120    2.117695
H      -3.052619    0.033071   -1.361484
H      -1.503179   -0.135508   -2.210507
H      -3.145187   -2.588632   -1.638998
H      -0.918840   -3.776416   -1.264208
H      -0.051890   -2.242176   -1.719181
H      -1.732379   -2.701652    0.877926
