19

C      -0.003507    1.511001    0.063328
C       0.039627    0.010543   -0.008445
C       1.094897   -0.770515   -0.784933
C       0.536676   -2.150364   -0.386411
O       0.505016   -2.092849    1.036757
C      -0.285547   -0.924031    1.159646
C      -1.190409   -0.906099   -0.053761
C      -2.631692   -0.523121   -0.137960
O      -0.826419   -2.075293   -0.780343
H       0.921326    1.912583    0.492952
H      -0.130389    1.956163   -0.930119
H      -0.832003    1.860921    0.687919
H       1.051776   -0.605707   -1.864284
H       2.111445   -0.612909   -0.416110
H       1.003496   -3.066998   -0.736327
H      -0.537126   -0.637214    2.171075
H      -2.834361    0.353394    0.483216
H      -2.916292   -0.283482   -1.167783
H      -3.267585   -1.342790    0.210852
