15

O      -0.121118    0.065261    0.170983
C      -0.022403    1.245375   -0.044094
C       1.277668    2.012212   -0.105663
C       1.451195    2.737038   -1.454668
C       2.676144    3.619505   -1.459638
C       2.693594    4.935293   -2.108879
O       2.586790    4.819974   -0.687836
H      -0.928705    1.871316   -0.225717
H       1.260592    2.771051    0.688895
H       2.102792    1.321781    0.091805
H       1.530566    2.002833   -2.265953
H       0.568460    3.354204   -1.659511
H       3.627922    3.096250   -1.347841
H       3.631698    5.348836   -2.475991
H       1.798900    5.293150   -2.617003
