18

C       0.050837    1.551039   -0.004462
C       0.015254    0.009664    0.034150
C       0.723013   -0.475422    1.217846
C       1.297662   -0.832644    2.211230
C      -1.441288   -0.561468   -0.010719
C      -2.246946   -0.041029   -1.218467
C      -1.421888   -2.023297   -0.017512
C      -1.414619   -3.224101   -0.069079
H       1.079696    1.903286    0.100777
H      -0.345560    1.934740   -0.947367
H      -0.534195    1.973023    0.818969
H       0.533551   -0.371192   -0.856285
H       1.808652   -1.169752    3.078712
H      -1.941629   -0.228683    0.908774
H      -1.732759   -0.273330   -2.156561
H      -3.228331   -0.520383   -1.246870
H      -2.397413    1.039455   -1.160658
H      -1.403220   -4.285544   -0.091164
