20

C      -0.089426    1.571157    0.011004
C       0.023320    0.050101   -0.033343
C       0.762413   -0.502182   -1.249252
O       0.615604   -1.926094   -1.374658
C       1.834935   -1.409683   -0.812559
C       3.102922   -1.717135   -1.560172
C       1.794242   -1.410572    0.692470
C       2.115067   -0.106411    1.324387
N       0.713619   -0.521587    1.160026
H       0.884171    2.062570   -0.082042
H      -0.724244    1.929203   -0.805539
H      -0.538893    1.886945    0.956470
H      -0.985711   -0.378537   -0.026054
H       0.797501    0.049905   -2.186323
H       2.946277   -1.620426   -2.637135
H       3.909798   -1.043268   -1.255038
H       3.428551   -2.743078   -1.356301
H       1.927834   -2.349207    1.223938
H       2.456552   -0.066560    2.354295
H       2.517495    0.675668    0.684041
