19

C      -0.264234    1.325245   -0.244534
C       1.179921    1.357125    0.183502
C       0.483195    0.030874   -0.018475
C       0.141492   -0.784227    1.195006
C      -0.672568   -2.051119    1.328822
C      -0.306878   -3.182540    0.319672
O       0.711614   -2.733199   -0.584669
C       1.090321   -3.151971    0.733831
C       0.801473   -2.018882    1.765699
H      -1.014404    1.613884    0.485197
H      -0.511359    1.601525   -1.263624
H       1.930804    1.655445   -0.539774
H       1.399166    1.667194    1.200539
H       0.756870   -0.525599   -0.900450
H      -0.119612   -0.126267    2.027370
H      -1.547700   -2.114800    1.963670
H      -0.948430   -3.991253   -0.008686
H       1.839091   -3.930284    0.817439
H       1.191368   -2.054777    2.775469
