23

C      -0.287402    1.519910   -0.014218
C      -0.066042    0.005717    0.008010
C      -1.381470   -0.740680   -0.188946
C       1.114574   -0.430954   -0.919511
C       2.046179   -0.511006    0.312849
C       3.151393   -1.570006    0.467137
O       4.172280   -0.563506    0.623040
C       3.204583    0.495412    0.488649
C       0.801072   -0.445252    1.228491
H       0.650065    2.069159    0.126262
H      -0.718096    1.839406   -0.970156
H      -0.973945    1.827737    0.782835
H      -1.843835   -0.481173   -1.148755
H      -1.229929   -1.825357   -0.174049
H      -2.099356   -0.492828    0.601983
H       0.946538   -1.415870   -1.368115
H       1.405514    0.264820   -1.713045
H       3.068327   -2.213194    1.354148
H       3.326716   -2.201240   -0.415012
H       3.413459    1.134499   -0.380306
H       3.155030    1.122903    1.389171
H       0.851761    0.239566    2.081075
H       0.513706   -1.435610    1.597481
