22

C      -1.544061   -0.448569   -0.205489
C      -0.056102   -0.088138   -0.346943
C       0.105956    1.355032   -0.846934
C       0.768918   -0.352790    0.938999
C       0.159261    0.251482    2.213859
O       1.046693    0.205030    3.325573
C       1.053221   -1.848584    1.151644
O       1.766841   -2.444589    0.075698
H      -2.058578    0.218606    0.495283
H      -2.050541   -0.356955   -1.171745
H      -1.689431   -1.476144    0.141679
H       0.375092   -0.751324   -1.106325
H      -0.301658    2.083443   -0.136427
H       1.160016    1.604302   -1.011498
H      -0.421305    1.499464   -1.795782
H       1.748065    0.137330    0.796259
H      -0.179732    1.280695    2.026494
H      -0.719466   -0.323294    2.524883
H       1.797643    0.772120    3.122996
H       1.579080   -1.979920    2.106256
H       0.112263   -2.405748    1.220912
H       2.652889   -2.068812    0.067919
