11

N      -0.061171    1.284885    0.317947
C      -0.023419    0.070369   -0.040746
O       1.166530   -0.563103   -0.378513
C       1.140022   -1.865413   -0.754174
C       0.001721   -2.571422   -0.812957
N      -1.227134   -2.004614   -0.489473
C      -1.221095   -0.769917   -0.130748
H       0.870965    1.700944    0.318901
H       2.127330   -2.241264   -0.990907
H       0.002610   -3.610212   -1.115509
H      -2.155626   -0.280749    0.132200
