18

O       0.113202    1.385594    0.262641
C       0.034965   -0.001656    0.052973
C      -1.369989   -0.545987   -0.225228
C      -1.568202   -0.557230   -1.703477
C      -0.289977   -0.033798   -2.342235
O      -0.368136    1.384038   -2.487864
C       0.678697   -0.554244   -1.250160
C       0.210777   -2.012979   -1.180197
N      -1.258462   -1.814165   -0.983356
H      -0.206106    1.800424   -0.552102
H       0.478660   -0.469570    0.938146
H      -2.181529   -0.454955    0.485961
H      -2.532033   -0.476242   -2.189845
H      -0.095875   -0.498549   -3.318375
H       0.444830    1.687563   -2.905578
H       1.740797   -0.358165   -1.390897
H       0.386375   -2.584823   -2.096652
H       0.628057   -2.569421   -0.335982
