18

C      -0.028477    1.504553    0.024259
C       0.031463    0.011848   -0.021307
C      -0.035729   -0.764052   -1.103341
C      -0.002644   -2.237053   -0.742763
C       0.836652   -3.070281   -1.601110
N       1.516391   -3.751217   -2.242774
C       0.515639   -2.225894    0.744189
O       1.920261   -2.329388    0.822230
C       0.145691   -0.816617    1.240747
H       0.874641    1.916389    0.491156
H      -0.126288    1.937160   -0.974557
H      -0.876705    1.846852    0.630507
H      -0.139983   -0.423739   -2.126288
H      -1.016126   -2.663736   -0.773389
H       0.029520   -3.022340    1.323220
H       2.199857   -3.141982    0.383902
H       0.916899   -0.454087    1.928097
H      -0.804020   -0.820681    1.792367
