15

O      -0.083129   -0.047010    0.257430
C      -0.020096    1.158520    0.164480
N       1.144235    1.864942    0.026557
C       1.242010    3.322997   -0.134405
C       2.780097    3.601993   -0.038083
C       3.383718    2.204831   -0.124550
C       2.416541    1.291515   -0.055054
C       3.246291    4.514514   -1.083966
N       3.615311    5.235675   -1.907922
H      -0.904710    1.822931    0.186867
H       0.856337    3.629584   -1.111410
H       0.681086    3.846150    0.642316
H       3.027874    4.066005    0.926136
H       4.444124    2.018826   -0.190142
H       2.481193    0.213922   -0.040875
