20

C       0.066076    1.571739    0.044555
C       0.027179    0.041382    0.037854
C      -1.397510   -0.522460   -0.019860
C      -1.434869   -2.053225   -0.031373
C      -2.873681   -2.628764   -0.052393
N      -3.700036   -2.301842   -1.217856
C      -2.814379   -4.094450    0.086276
N      -2.726129   -5.241479    0.192228
H       1.094581    1.942940    0.083968
H      -0.402321    1.984550   -0.855835
H      -0.467806    1.978296    0.910629
H       0.599452   -0.337727   -0.818825
H       0.531756   -0.343886    0.933233
H      -1.970837   -0.149862    0.841071
H      -1.898840   -0.131225   -0.915136
H      -0.891728   -2.439915   -0.903358
H      -0.917638   -2.442462    0.854094
H      -3.406926   -2.250509    0.830168
H      -3.843983   -1.298521   -1.261463
H      -3.221264   -2.573971   -2.072002
