16

C       0.011534    1.429353   -0.029231
O       0.000349    0.011092   -0.007014
C       0.587022   -0.633724   -1.028173
C       0.689133   -2.010850   -1.184872
C       1.375786   -2.229175   -2.391477
C       1.683367   -0.998224   -2.954857
N       1.181860   -0.024210   -2.087071
C       2.369753   -0.647074   -4.170120
O       2.832875   -1.433345   -4.973745
H       1.036787    1.822345   -0.019144
H      -0.524568    1.820944   -0.903920
H      -0.502025    1.753627    0.875935
H       0.303426   -2.741036   -0.492333
H       1.635808   -3.178339   -2.833313
H       1.257944    0.966644   -2.238548
H       2.453864    0.456400   -4.336589
