20

C       0.009874    1.492017    0.136560
C       0.021437   -0.001574   -0.019668
C       0.881997   -0.790777   -1.053403
C       0.727137   -1.840047    0.089865
C       1.708623   -2.933535    0.400224
O       0.728231   -0.725755    1.028640
C      -0.792585   -2.163556   -0.024855
N      -1.586176   -1.610046    1.097603
C      -1.320405   -0.788497   -0.106764
H       1.027576    1.889062    0.183356
H      -0.508109    1.961259   -0.706610
H      -0.513272    1.769774    1.057040
H       0.458117   -1.012149   -2.038066
H       1.900671   -0.404238   -1.128529
H       2.728731   -2.542763    0.447419
H       1.468108   -3.392142    1.364562
H       1.669801   -3.712539   -0.368592
H      -1.153387   -3.001952   -0.609370
H      -2.533173   -1.978750    1.010520
H      -2.124855   -0.471122   -0.760122
