17

O       0.051912    1.418319    0.123773
C       0.014146    0.025992    0.016498
C      -1.432126   -0.505673    0.010031
C      -1.477177   -2.037720   -0.119969
C      -0.738600   -2.515956   -1.361966
O      -1.197153   -3.298522   -2.153819
C       0.668961   -1.922462   -1.546584
C       0.712505   -0.435071   -1.259437
O       1.227782    0.373715   -1.998648
H       0.562390    1.722145   -0.644636
H       0.546347   -0.440047    0.866499
H      -1.924027   -0.186978    0.932555
H      -1.971412   -0.034287   -0.819991
H      -0.990695   -2.493035    0.755001
H      -2.501156   -2.413728   -0.161828
H       1.315214   -2.419862   -0.808327
H       1.047953   -2.139569   -2.545470
