20

C      -0.070395    1.555659    0.028778
C       0.028260    0.040662    0.013909
C       1.086884   -0.649099   -0.898859
C       1.140949   -1.773049    0.175685
C       0.706234   -0.694570    1.209485
C      -0.020772   -2.728204   -0.054554
O       0.072112   -3.939692   -0.063962
N      -1.204673   -2.065951   -0.254270
C      -1.336243   -0.615227   -0.246624
H       0.909705    2.005395    0.215432
H      -0.438780    1.941516   -0.929012
H      -0.753220    1.903946    0.812616
H       0.795570   -0.922103   -1.917073
H       2.019067   -0.078102   -0.925666
H       2.058059   -2.338631    0.329065
H       1.565922   -0.132246    1.584251
H       0.079461   -1.007648    2.049303
H      -2.015773   -2.644196   -0.413052
H      -2.047566   -0.302364    0.531468
H      -1.733078   -0.264677   -1.210432
