13

O       0.008462   -0.032488    0.004579
C      -0.034696    1.186549    0.007763
C       1.178163    1.986159    0.001263
C       2.211252    2.602588   -0.004457
C      -1.308685    1.918714    0.018713
C      -2.561223    1.342120    0.026383
N      -3.436085    2.389034    0.035078
C      -2.695953    3.545203    0.032626
N      -1.413843    3.295480    0.022855
H       3.120830    3.152087   -0.009696
H      -2.873231    0.312008    0.026172
H      -4.440953    2.321534    0.042040
H      -3.157402    4.521373    0.038292
