17

C      -0.099041    1.487459   -0.036330
C      -0.057907    0.008403    0.142111
C      -1.020440   -0.922347    0.168870
N      -2.271644   -1.218777   -0.477915
C      -1.666802   -2.543021   -0.878040
C      -0.490173   -2.310543    0.159451
N       0.907875   -2.119230   -0.082722
C       1.235519   -0.759738    0.122836
O       2.362430   -0.320166    0.169434
H       0.699233    1.810484   -0.710920
H      -1.064125    1.810409   -0.436912
H       0.064127    2.007968    0.915051
H      -3.076758   -1.305706    0.134590
H      -2.295553   -3.420056   -0.705442
H      -1.339491   -2.501191   -1.918709
H      -0.694397   -2.892020    1.067101
H       1.605267   -2.806660    0.160130
