18

C       0.005056    1.586720    0.011899
C       0.017895    0.044986   -0.002779
C       0.722030   -0.492651    1.277328
O       2.067961   -0.094057    1.364472
C      -1.430050   -0.527620   -0.013060
C      -2.227566   -0.080979   -1.151832
N      -2.858593    0.280621   -2.049544
C       0.761873   -0.450404   -1.164149
C       1.415412   -0.873100   -2.081080
H       1.023934    1.960158    0.125513
H      -0.421315    1.986092   -0.910722
H      -0.591022    1.947672    0.856959
H       0.219411   -0.077727    2.157820
H       0.618651   -1.588580    1.309614
H       2.520002   -0.440765    0.585013
H      -1.396498   -1.622205   -0.018999
H      -1.939747   -0.221788    0.908256
H       1.965484   -1.233850   -2.915626
