22

C       0.067414    1.531204   -0.124316
C       0.026846    0.002530    0.000768
C       0.721222   -0.458144    1.289788
C      -1.425533   -0.505679   -0.094693
C      -1.535518   -2.012296   -0.202329
N      -1.716427   -2.793503    1.014903
C      -2.809509   -2.785991    0.018426
C      -4.072748   -2.125939    0.448504
O      -5.145068   -2.343489   -0.058657
H       1.096974    1.902236   -0.092912
H      -0.383701    1.869917   -1.062992
H      -0.480286    2.005357    0.698878
H       0.579828   -0.417968   -0.852827
H       0.732448   -1.547184    1.383552
H       1.757375   -0.105263    1.320202
H       0.206486   -0.060214    2.171965
H      -1.990013   -0.158956    0.778280
H      -1.900173   -0.060817   -0.979100
H      -0.900902   -2.445302   -0.977210
H      -1.216806   -3.677318    0.972903
H      -2.964091   -3.657924   -0.612689
H      -3.953834   -1.412599    1.292239
