20

C      -0.398414    1.323518   -0.640996
C      -0.303343   -0.052551    0.018656
C       0.817965   -0.135627    1.084675
N       0.566037    0.855060    2.127796
C       0.531135    0.509433    3.337841
O       0.285862    1.431324    4.288961
C       0.265447    0.939695    5.624137
C       0.990238   -1.523015    1.538908
C       1.116242   -2.658778    1.915536
H       0.530198    1.573725   -1.166644
H      -1.211057    1.344089   -1.373557
H      -0.580674    2.100126    0.104652
H      -1.250662   -0.311210    0.505131
H      -0.110907   -0.825439   -0.733477
H       1.752616    0.170104    0.590867
H       0.689613   -0.510122    3.711125
H      -0.521312    0.188552    5.764119
H       1.232331    0.506991    5.908165
H       0.057074    1.798079    6.263781
H       1.237192   -3.666070    2.229975
