19

C       0.024540    1.515454   -0.002319
C       0.013195   -0.013387    0.024529
C      -1.407064   -0.580727    0.103071
C      -1.425985   -2.077904    0.336240
O      -2.228294   -2.640733    1.034844
O       0.642122   -0.558737   -1.127113
C       2.015298   -0.725684   -0.805091
C       1.973501   -1.085041    0.684732
O       0.772705   -0.475012    1.147909
H       1.046692    1.886555   -0.114317
H      -0.577154    1.888466   -0.835679
H      -0.380718    1.909307    0.933161
H      -1.979411   -0.093670    0.896009
H      -1.908402   -0.376544   -0.852039
H      -0.645026   -2.642157   -0.216685
H       2.423599   -1.515861   -1.438683
H       2.581292    0.199354   -0.983126
H       1.923394   -2.170571    0.838428
H       2.826835   -0.689868    1.245073
