18

C       0.039855    1.554576   -0.070390
C       0.063794    0.100256   -0.021335
C       0.080555   -1.104291    0.011507
C       0.108087   -2.550502    0.061847
C       0.049930   -3.272612    1.414311
C      -1.485061   -3.022111    1.484339
C      -1.826491   -4.497792    1.708261
C      -0.651995   -4.478002    0.726833
N      -1.257433   -3.266140   -0.036576
H       0.926893    1.949740   -0.577719
H      -0.840188    1.916316   -0.613717
H       0.010558    1.989199    0.934956
H       0.819921   -2.959210   -0.665489
H       0.775714   -3.280919    2.234222
H      -1.996345   -2.122322    1.825155
H      -1.634066   -4.906035    2.703534
H      -2.784736   -4.837498    1.306598
H      -0.181599   -5.293343    0.174229
