20

C       0.038086    1.535812   -0.026952
C       1.308249    0.724420   -0.046002
C      -0.022987    0.030288    0.102811
C      -0.436647   -0.593941    1.383386
C       0.026537   -0.253122    2.793289
C      -0.476692   -1.667145    3.134879
C      -2.007380   -1.633150    2.968689
C      -1.677483   -1.427525    1.502730
N      -0.323756   -2.082043    1.634265
H      -0.168497    2.126817    0.859047
H      -0.309142    1.985172   -0.950509
H       1.835480    0.609519   -0.986326
H       1.956685    0.779401    0.821366
H      -0.374265   -0.509707   -0.772107
H       1.117357   -0.199556    2.842537
H      -0.412575    0.600855    3.321008
H       0.001978   -2.267591    3.905788
H      -2.449312   -2.619399    3.133459
H      -2.578306   -0.872453    3.512281
H      -2.309479   -1.623568    0.642925
