19

C      -0.257337    1.596192   -0.087671
C       0.033036    0.105480   -0.031225
C       1.178200   -0.596549   -0.785858
C       2.427404    0.249736   -0.330546
C       2.156436    0.053968    1.182215
O       1.619480    0.911859    2.259551
C       0.654518   -0.155153    2.570352
C       0.809838   -0.595065    1.105698
O       1.046832   -1.716125    0.193951
H       0.602724    2.213588    0.172461
H      -0.603550    1.879122   -1.088170
H      -1.058076    1.848017    0.615582
H      -0.880475   -0.474510   -0.191412
H       1.115035   -0.935676   -1.819331
H       3.383073   -0.189693   -0.621529
H       2.378902    1.268180   -0.719478
H       2.917751   -0.594406    1.629101
H       1.056466   -0.849207    3.318178
H      -0.310726    0.246858    2.889399
