17

O      -0.117428    1.124799    1.274101
C      -0.034944    0.167879    0.251024
C       0.959037   -0.978536    0.580687
C       0.115970   -2.010742    1.304881
N      -0.788304   -1.397222    2.306566
C      -1.312278   -1.778335    0.979978
C      -1.396611   -0.590761    0.023758
C      -2.577755    0.245632    0.210144
N      -3.537905    0.873902    0.345555
H      -0.375885    0.636544    2.072145
H       0.251552    0.709720   -0.652789
H       1.369961   -1.420057   -0.334853
H       1.788618   -0.590680    1.177212
H       0.498287   -3.008586    1.491288
H      -1.070892   -2.079974    3.003367
H      -2.039711   -2.578771    0.907679
H      -1.418874   -0.983665   -1.000938
