22

C      -0.047784    1.542636    0.003526
C       0.056913    0.022281    0.019610
C       0.697327   -0.605024   -1.238881
C       1.327935   -1.914110   -0.719365
O       2.528917   -2.299140   -1.373973
C       1.610060   -1.640010    0.754330
C       1.735389   -2.825198    1.676768
C       2.285777   -0.347953    1.040488
N       0.824364   -0.469967    1.191948
H       0.939187    2.003638   -0.110713
H      -0.674715    1.879061   -0.828483
H      -0.487927    1.907284    0.935938
H      -0.951348   -0.393475    0.145125
H      -0.032548   -0.770745   -2.036328
H       1.489145    0.030395   -1.649152
H       0.592177   -2.732736   -0.776915
H       2.304552   -2.594540   -2.261731
H       2.574265   -3.456855    1.366031
H       1.904932   -2.503109    2.707168
H       0.825560   -3.436453    1.657641
H       2.821548   -0.228341    1.977877
H       2.696957    0.226935    0.216009
