18

O      -0.009268    1.404192    0.074880
C       0.013075   -0.000160   -0.031040
C      -1.365163   -0.642609    0.066331
C      -2.240270   -0.166514   -1.055669
C      -1.215081   -1.226238   -1.347718
C       0.188109   -0.626958   -1.471474
C       0.475089    0.333176   -2.637439
C       1.730462    1.052497   -2.427367
N       2.721819    1.605026   -2.205195
H       0.896060    1.730041    0.012580
H       0.727185   -0.441793    0.673884
H      -1.770654   -1.108772    0.955121
H      -3.264253   -0.523256   -1.018926
H      -2.139131    0.847198   -1.429667
H      -1.496379   -2.212257   -1.696268
H       0.959110   -1.401547   -1.449436
H       0.531957   -0.217818   -3.582726
H      -0.325735    1.070864   -2.738753
