20

C       0.129956    1.485659   -0.298981
C       0.032009   -0.020339   -0.079800
C      -1.395984   -0.545380   -0.103393
O       0.730378   -0.717074   -1.145936
C       2.062994   -0.849560   -1.003529
O       2.716735   -0.418700   -0.083422
N       2.574756   -1.623865   -2.039619
C       2.463704   -1.253568   -3.438639
C       3.785924   -1.242192   -2.731567
H       1.173189    1.807093   -0.270593
H      -0.305899    1.763736   -1.264243
H      -0.413944    2.016251    0.488751
H       0.525593   -0.284316    0.859566
H      -1.879024   -0.312762   -1.057641
H      -1.412824   -1.629414    0.035969
H      -1.978815   -0.083375    0.698912
H       2.212634   -2.060007   -4.121485
H       2.005974   -0.295777   -3.670367
H       4.220195   -0.279148   -2.477549
H       4.501261   -2.041184   -2.902019
