17

C       0.087728    1.049367   -0.427608
O      -0.490922    0.225416    0.588292
C       0.394658   -0.511882    1.296835
C       0.824249   -1.800555    1.181507
C       0.447780   -2.812687    0.153226
N       1.713335   -2.089765    2.219419
C       1.794598   -0.994381    2.918292
O       2.528497   -0.798695    4.029021
N       1.039280    0.017894    2.424608
H       0.643175    0.443613   -1.152647
H      -0.740250    1.556320   -0.927213
H       0.764566    1.798319    0.002965
H       1.315173   -3.128532   -0.437732
H       0.033107   -3.712367    0.621205
H      -0.303948   -2.403821   -0.527195
H       2.972711   -1.638366    4.203343
H       0.876704    0.915572    2.847711
