23

C       0.248438    1.641786    0.047300
C       0.089115    0.129776    0.026269
C       0.962321   -0.711691   -0.950724
C       1.320251   -1.696332    0.212973
C       0.681725   -3.072550    0.100797
C       2.796800   -1.707038    0.625733
C       2.967033   -0.349250    1.318075
O       1.717452   -0.071770    1.947776
C       0.668046   -0.691080    1.219663
H       1.286772    1.929778    0.235183
H      -0.058446    2.080004   -0.908834
H      -0.362761    2.093471    0.835927
H      -0.968455   -0.127873   -0.100707
H       0.439568   -1.160422   -1.799654
H       1.828662   -0.164174   -1.336470
H       1.146818   -3.659603   -0.699662
H       0.788870   -3.635346    1.034971
H      -0.387710   -2.999817   -0.126013
H       2.980902   -2.520279    1.336795
H       3.477959   -1.835127   -0.221256
H       3.739761   -0.344191    2.092329
H       3.216490    0.436069    0.587769
H      -0.058672   -1.067265    1.946669
