18

C      -0.045793    1.462770    0.078921
C       0.015915   -0.036613   -0.041712
C       0.678551   -0.654244   -1.297222
C       0.056019   -2.081799   -1.277459
C      -0.806431   -1.991715   -0.000095
C       0.118936   -1.925087    1.229387
O       0.663445   -0.603727    1.111019
O      -1.273036   -0.635116   -0.037292
H       0.965422    1.876139    0.108886
H      -0.575639    1.889039   -0.776347
H      -0.565385    1.739056    0.998842
H       0.404730   -0.100894   -2.199125
H       1.765935   -0.652639   -1.203443
H      -0.574942   -2.257661   -2.151387
H       0.799348   -2.881262   -1.227102
H      -1.645109   -2.682704    0.073132
H      -0.434823   -2.015117    2.171515
H       0.918403   -2.674664    1.208489
