19

C      -0.157771    1.708923    0.295268
C       0.003078    0.214670    0.023367
N       0.999595   -0.107364   -1.043097
C       1.771892   -1.038894   -0.178900
C       0.930335   -0.544677    1.005915
O       0.972223   -0.662966    2.192212
C      -1.362349   -0.460651   -0.080658
C      -2.097828   -0.521915   -1.366947
N      -1.563847   -1.751357   -0.749299
H       0.819229    2.186935    0.398064
H      -0.693015    2.190864   -0.528835
H      -0.724882    1.868955    1.217590
H       0.623553   -0.517300   -1.890599
H       1.627809   -2.112550   -0.366303
H       2.846484   -0.832644   -0.133909
H      -1.940075   -0.360573    0.835861
H      -3.181170   -0.447922   -1.383924
H      -1.608818   -0.128245   -2.255612
H      -0.715179   -2.035175   -1.235250
