17

C      -0.119742    1.619723    0.068469
C      -0.072906    0.104845    0.035387
C      -1.333065   -0.568285   -0.476870
O      -1.580319   -0.337671   -1.857284
C       1.250254   -0.568095   -0.283270
C       0.685901   -0.619372    1.115915
O       1.260672    0.154863    2.129751
H       0.769364    2.028212    0.551374
H      -0.176339    2.035234   -0.944623
H      -0.992473    1.973357    0.630686
H      -1.245588   -1.655230   -0.375995
H      -2.193449   -0.252081    0.135904
H      -1.761184    0.600096   -1.971999
H       1.245544   -1.468977   -0.887924
H       2.107164    0.079696   -0.437874
H       0.274414   -1.570085    1.457980
H       2.120937   -0.223610    2.338135
