13

C      -0.017624    1.528743   -0.003356
C       1.415553    2.045538    0.015064
O       2.141709    1.510253    1.132341
C       1.843885    0.230573    1.469665
N       0.943052   -0.535180    1.023014
C       0.018286   -0.003211    0.023999
H      -0.546160    1.904587    0.880013
H      -0.542023    1.905125   -0.887720
H       1.942171    1.761102   -0.905742
H       1.469892    3.131788    0.118825
H       2.523615   -0.106871    2.250547
H      -0.976480   -0.409699    0.236660
H       0.303670   -0.398881   -0.960305
