20

C      -0.075389    1.596206    0.094653
C      -0.028433    0.064312   -0.036835
O       0.679912   -0.503311    1.062996
C      -1.454533   -0.509900   -0.033607
O      -2.005822   -0.224115    1.249143
C       0.699552   -0.399263   -1.307417
C       2.196209   -0.027364   -1.306521
C       2.895157   -0.567858   -2.469229
N       3.432191   -1.000347   -3.396755
H       0.927456    2.001959    0.246838
H      -0.510839    2.060180   -0.796845
H      -0.687556    1.875393    0.955678
H       0.074377   -0.462937    1.814401
H      -2.056071   -0.057588   -0.835773
H      -1.403373   -1.593988   -0.202751
H      -2.790936   -0.763136    1.376456
H       0.616002   -1.488213   -1.381386
H       0.212468    0.026902   -2.190493
H       2.331429    1.058994   -1.301401
H       2.662006   -0.412916   -0.394851
