15

N       0.290293    1.406759   -0.085966
C       0.113569    0.024542   -0.070936
C      -1.009290   -0.745200   -0.032889
O      -0.677354   -2.055119    0.061311
N       0.694696   -2.171651    0.078627
C       1.162913   -0.946817    0.010141
C       2.642295   -0.687133    0.020279
C       3.094661   -0.138693   -1.327877
O       2.818434    0.968987   -1.721025
H       1.089957    1.681780   -0.647666
H      -0.535701    1.918547   -0.363649
H      -2.064297   -0.525289   -0.055927
H       2.876605    0.066999    0.781487
H       3.169865   -1.613906    0.255103
H       3.689393   -0.829453   -1.960710
