18

O       0.035187    1.405435    0.157269
C       0.015363   -0.009601    0.232444
C      -1.381209   -0.509724    0.059286
C      -2.492925    0.210896   -0.094898
C      -3.724301   -0.642885   -0.272296
C      -3.204057   -2.078455   -0.003493
C      -1.656653   -1.995011   -0.061046
O      -1.080262   -2.537696   -1.255107
H       0.943903    1.696672    0.272516
H       0.651681   -0.469278   -0.542036
H       0.407675   -0.364991    1.202566
H      -2.517006    1.293940   -0.108037
H      -4.525941   -0.360912    0.420224
H      -4.147177   -0.525350   -1.279665
H      -3.515556   -2.406047    0.992816
H      -3.569574   -2.820868   -0.717415
H      -1.190950   -2.583295    0.737627
H      -1.376448   -1.985056   -1.987612
