21

C      -0.074796    1.633996   -0.035066
C      -0.040632    0.100308    0.033678
C       0.651185   -0.501969   -1.216586
C       0.001363   -0.153264   -2.473228
C      -0.553771    0.138544   -3.499208
C       0.640631   -0.447906    1.301411
O       2.014565   -0.050481    1.410391
C      -0.074603   -0.122794    2.615470
O       0.600348   -0.715502    3.705271
H       0.936348    2.060370   -0.036474
H      -0.554499    1.956908   -0.962100
H      -0.628231    2.070854    0.800370
H      -1.075689   -0.265072    0.047650
H       1.697977   -0.174926   -1.230501
H       0.678664   -1.594651   -1.117749
H      -1.033178    0.387940   -4.413152
H       0.690417   -1.541104    1.226423
H       2.039662    0.913115    1.444107
H      -0.149474    0.971322    2.743427
H      -1.095181   -0.521333    2.602722
H       1.540541   -0.585461    3.525071
