16

O       0.012311   -0.055507   -0.278958
C      -0.030577    1.127905   -0.023241
C      -1.325631    1.894956    0.132284
C      -1.078293    3.343052    0.482022
C       0.010314    3.804347    1.425319
C       0.084714    4.123129   -0.053590
N       1.383626    3.353271   -0.220652
C       1.302571    2.999323    1.218232
C       1.210542    1.919168    0.186066
H      -1.885112    1.811741   -0.807108
H      -1.930170    1.393979    0.897589
H      -1.972897    3.955945    0.565611
H      -0.165740    4.455796    2.269945
H       0.002040    5.057827   -0.592399
H       2.168990    3.077789    1.866944
H       2.118810    1.351920    0.006456
