18

O      -0.188979    1.526890    0.344014
C       0.080549    0.164506    0.041105
C      -1.252564   -0.551298   -0.135955
N      -1.985746   -0.130703   -1.311036
C      -2.606112    1.117601   -1.509039
C      -3.245507    1.169053   -2.681351
C      -3.066387   -0.152624   -3.379766
C      -2.216732   -0.966900   -2.393931
O      -1.814409   -2.105915   -2.500212
H       0.636014    2.018704    0.304538
H       0.672911    0.065600   -0.879805
H       0.636311   -0.322532    0.857688
H      -1.080108   -1.624331   -0.254511
H      -1.861424   -0.391350    0.762456
H      -2.490826    1.871352   -0.745536
H      -3.791025    2.014563   -3.070507
H      -4.004204   -0.684946   -3.576980
H      -2.541900   -0.080664   -4.339895
