13

O       0.082524    1.310821   -0.188106
C       0.009209   -0.042658    0.002429
C      -0.387835   -0.663476    1.279467
C      -1.391618   -0.765674    0.120556
C      -2.533192    0.140368    0.134459
O      -2.531472    1.247382    0.651268
C      -3.734756   -0.330460   -0.576045
N      -4.678472   -0.713454   -1.123511
H      -0.646251    1.727733    0.301154
H       0.713609   -0.564605   -0.636261
H       0.073481   -1.595962    1.584221
H      -0.682381    0.000271    2.086137
H      -1.520498   -1.718499   -0.376612
