19

C       0.246625    1.699971    0.050913
C       0.109163    0.185055    0.009859
C       0.605134   -0.633938   -1.226588
C       1.252729   -1.696136   -0.278918
C       2.656738   -2.235403   -0.567999
C       3.155385   -3.143972    0.541709
O       3.514762   -4.280928    0.370378
C       1.089233   -0.654910    0.843497
O       1.664626   -0.469727    1.879198
H       1.265181    2.008999   -0.204960
H      -0.440845    2.178452   -0.653372
H       0.026539    2.078033    1.053533
H      -0.915016   -0.115506    0.266254
H      -0.158085   -0.999027   -1.914347
H       1.364272   -0.085513   -1.791798
H       0.553514   -2.525059   -0.111653
H       2.682341   -2.790602   -1.510412
H       3.354013   -1.389258   -0.645664
H       3.160825   -2.676808    1.549149
