17

C      -0.133051    1.542898    0.231394
C       0.082192    0.075093    0.072054
O      -0.729106   -0.837721    0.828327
C       0.700459   -0.944722    0.916658
C       1.231537   -1.730762   -0.313688
C       0.150716   -2.122112   -1.246257
C       0.558391   -0.656085   -1.232686
C       1.216054   -0.040308   -2.386823
O       1.710599   -0.654436   -3.308153
H       0.742774    2.106750   -0.105808
H      -0.994894    1.876409   -0.357471
H      -0.319617    1.779966    1.281759
H       1.152135   -0.894136    1.899942
H       2.259141   -2.050945   -0.422977
H       0.477556   -2.629557   -2.147169
H      -0.827108   -2.382545   -0.863488
H       1.247548    1.072545   -2.367832
