15

C       0.103773    1.457638    0.038147
C      -0.075437   -0.012837    0.013232
C      -1.153190   -0.805890   -0.178307
N      -0.692338   -2.119737   -0.087973
C      -1.017690   -3.466394   -0.140153
C       0.179210   -4.109633    0.080359
N       1.235499   -3.229043    0.267570
C       0.649441   -2.072599    0.155308
O       1.058752   -0.785258    0.223015
H       0.809468    1.784202   -0.733498
H      -0.854300    1.951384   -0.138311
H       0.493889    1.793325    1.005218
H      -2.179326   -0.543185   -0.365885
H      -2.017491   -3.819999   -0.319792
H       0.344656   -5.175677    0.115829
