18

O       0.203680   -0.208505   -0.118392
C       0.101245    0.986464   -0.017432
C       1.276464    1.938014    0.051811
C       1.304680    2.935001   -1.137630
C       1.992516    4.225502   -0.604286
C       2.326296    3.947708    0.876969
C       1.311018    2.859144    1.307140
C       0.003023    3.451581    1.605837
N      -1.022041    3.935264    1.834362
H      -0.894519    1.482503    0.011543
H       2.186682    1.332330    0.067472
H       1.824356    2.496489   -1.991985
H       0.283223    3.155098   -1.465661
H       2.890578    4.476397   -1.173330
H       1.313158    5.077525   -0.687647
H       3.330017    3.522633    0.976503
H       2.277111    4.837381    1.508073
H       1.641409    2.311141    2.194356
