23

C      -0.329799    1.582058   -0.018014
C      -0.037855    0.064569    0.002587
C      -1.368707   -0.714253   -0.022475
C       0.733943   -0.325966   -1.273668
O       1.964645    0.340401   -1.467401
C       3.060992   -0.228450   -0.780330
C       3.155845    0.180296    0.689172
C       2.002418   -0.224945    1.573234
C       0.700341   -0.277561    1.286560
H       0.598891    2.150964   -0.101467
H      -0.965716    1.840727   -0.872937
H      -0.846679    1.894040    0.894888
H      -1.940239   -0.488104   -0.928901
H      -1.198846   -1.796049    0.011005
H      -1.990748   -0.447378    0.838083
H       0.889605   -1.416748   -1.287071
H       0.117449   -0.065012   -2.142424
H       3.024596   -1.327052   -0.858784
H       3.958051    0.115195   -1.307460
H       4.083325   -0.246665    1.091791
H       3.285372    1.271455    0.739386
H       2.283068   -0.464229    2.597644
H       0.037553   -0.553425    2.106628
