20

C       0.181017   -0.113257    0.573114
O       0.559964   -0.966012   -0.517339
C       0.891280   -0.333617   -1.666979
N       0.819344    0.925412   -1.774107
O       1.247409   -1.161459   -2.659786
C       1.711200   -2.537570   -2.496979
C       2.888186   -2.652330   -1.535795
C       0.568785   -3.528311   -2.222325
O       0.230963   -3.714136   -0.868284
H       0.991193    0.578805    0.810521
H      -0.709406    0.462492    0.312842
H      -0.018005   -0.781766    1.411632
H       1.126211    1.212485   -2.700078
H       2.058793   -2.746023   -3.514200
H       3.330815   -3.648681   -1.629953
H       3.654057   -1.911720   -1.781030
H       2.574825   -2.522372   -0.500233
H      -0.297022   -3.221204   -2.830695
H       0.894190   -4.508066   -2.591780
H       0.044329   -2.836941   -0.511853
