17

C       0.013135   -1.181171    0.023659
C      -0.016350    0.022052    0.035387
C      -0.044097    1.452297    0.041269
C      -0.700052    2.410905    1.069919
C      -0.060215    3.360368    0.034781
C       1.196609    2.429091   -0.037436
C       1.656756    2.416497   -1.487110
O       0.388987    2.416453   -2.172041
C      -0.529499    2.415460   -1.107544
H       0.033501   -2.242696    0.011439
H      -1.791986    2.392594    1.122119
H      -0.258385    2.408542    2.068732
H      -0.061620    4.449399    0.025370
H       1.933649    2.425859    0.765094
H       2.235948    3.303799   -1.769336
H       2.224514    1.517339   -1.753588
H      -1.556925    2.393249   -1.467733
