18

C       0.002614    1.548968    0.030177
C       0.043470    0.048306   -0.004856
C      -0.880768   -0.833951    0.789026
C       0.599160   -0.960749    1.011865
C       1.234510   -1.798071   -0.106245
C       0.829773   -3.187847   -0.253041
N       0.501148   -4.285541   -0.410323
C       0.631308   -0.764336   -1.157247
O      -0.327003   -1.219031   -2.069754
H       0.972080    1.984346   -0.237717
H      -0.743951    1.937318   -0.671849
H      -0.262408    1.911365    1.028367
H      -1.417940   -0.325779    1.583334
H      -1.438276   -1.631059    0.307440
H       1.069825   -0.776633    1.969370
H       2.326090   -1.744506   -0.099422
H       1.452047   -0.233286   -1.657743
H       0.088954   -1.829426   -2.688511
