14

O       0.005298    1.343386    0.008193
C      -0.007920   -0.007691    0.000981
C      -1.237774   -0.602163    0.005041
C      -1.610430   -2.003899   -0.000417
O      -2.789294   -2.346602    0.004396
C      -0.575622   -3.060899   -0.011889
C       0.771477   -2.961200   -0.019297
C       1.582587   -1.772794   -0.017907
N       1.263010   -0.521876   -0.009375
H       0.937992    1.599501    0.004026
H      -2.086572    0.074288    0.013682
H      -1.018242   -4.054160   -0.014445
H       1.342458   -3.886459   -0.027464
H       2.658548   -1.958154   -0.025313
