23

C      -0.044538    1.577105   -0.032745
C       0.061233    0.049697    0.009643
C       0.668295   -0.530071   -1.279876
C       0.793387   -2.051526   -1.202865
O       1.511382   -2.460626   -0.048593
C       0.870294   -2.029367    1.136539
C       0.809016   -0.491069    1.252425
C       2.216807    0.084439    1.434495
O      -0.016863   -0.155536    2.371737
H       0.921648    2.046245   -0.247108
H      -0.738819    1.889192   -0.819972
H      -0.411767    1.964725    0.920569
H      -0.958770   -0.348993    0.107534
H       0.043827   -0.256374   -2.139081
H       1.658837   -0.093561   -1.458545
H      -0.210980   -2.509958   -1.197977
H       1.341070   -2.451343   -2.061217
H      -0.158985   -2.420254    1.192554
H       1.441393   -2.452683    1.971023
H       2.874298   -0.210912    0.613293
H       2.197819    1.174373    1.504511
H       2.661662   -0.306537    2.358444
H       0.483235   -0.334463    3.175079
