23

C      -0.095290    1.539866   -0.079859
C       0.015675    0.023656    0.001321
O       0.597536   -0.425184   -1.219053
C       0.697833   -1.837728   -1.278634
C       1.727308   -2.352381   -0.272406
C       1.377300   -1.916970    1.163040
C       2.604720   -1.396512    1.963551
C       2.249110    0.043113    1.500509
C       0.806897   -0.462160    1.213709
H       0.896981    1.995422   -0.148679
H      -0.667816    1.831920   -0.964274
H      -0.597264    1.935613    0.808461
H      -1.000835   -0.407356    0.071879
H      -0.290134   -2.295324   -1.094202
H       0.992982   -2.083078   -2.303486
H       1.809146   -3.443631   -0.333978
H       2.702637   -1.945455   -0.563818
H       0.763146   -2.680150    1.649978
H       2.466634   -1.516268    3.042062
H       3.585035   -1.796885    1.690042
H       2.370883    0.855571    2.220458
H       2.768100    0.313582    0.576802
H       0.189242   -0.336493    2.110133
