18

C      -0.285129    1.505380    0.030836
C      -0.045613   -0.002720    0.107406
N       0.538058   -0.356394    1.399092
C       0.059754   -1.295068    2.065564
O      -0.994344   -2.172636    1.803550
C      -0.853622   -2.832149    3.099296
C       0.347575   -1.934306    3.395004
C       1.610956   -2.156008    4.097419
O       0.608059   -1.261834    4.600572
H       0.643980    2.051060    0.217591
H      -0.663061    1.784072   -0.957860
H      -1.018062    1.821082    0.779468
H      -0.976396   -0.549185   -0.092660
H       0.673803   -0.294379   -0.668663
H      -1.725533   -2.658029    3.734957
H      -0.662503   -3.901482    2.981157
H       1.752003   -3.071029    4.670575
H       2.513485   -1.678341    3.722049
