16

O       0.103357    1.356284   -0.329865
C       0.065251    0.030779    0.158682
C      -1.342759   -0.545827    0.140932
C      -1.898486   -1.128805   -1.167782
C      -1.557073   -2.039985   -0.038986
O      -0.400927   -2.818325   -0.073108
C      -2.323344    0.170706    0.986295
O      -2.091461    1.210950    1.561771
H      -0.422269    1.877464    0.290172
H       0.717803   -0.571474   -0.476074
H       0.456855   -0.030980    1.184860
H      -2.942875   -0.961656   -1.409759
H      -1.215097   -1.077016   -2.008001
H      -2.386483   -2.480210    0.516769
H      -0.521890   -3.505247   -0.737122
H      -3.328813   -0.304335    1.059364
