21

C      -0.111784    1.524770   -0.039608
C       1.442987    1.456969    0.053730
C       1.208565    0.210433    0.972846
C       0.003262   -0.049678    0.008871
C       0.678200   -0.231786   -1.317930
C       0.421755   -0.613507   -2.565330
C       1.394520    0.073090   -3.520382
C       1.901678    1.286075   -2.676780
C       1.863791    0.725359   -1.245914
H      -0.564133    1.930894    0.868861
H      -0.569996    1.968795   -0.926594
H       2.035474    2.306726    0.392596
H       1.997789   -0.545363    1.024755
H       0.879859    0.483309    1.978373
H      -0.843512   -0.677816    0.280576
H      -0.391623   -1.246613   -2.900688
H       2.229283   -0.583038   -3.809416
H       0.911028    0.384760   -4.452887
H       2.888513    1.643125   -2.987011
H       1.193187    2.116209   -2.783514
H       2.800937    0.181123   -1.054248
