25

C       0.427963    1.059768    0.513462
O       0.275306   -0.293341    0.164814
C       0.542286   -0.577684   -1.204657
C       2.064472   -0.689954   -1.481479
C       2.406006   -2.211890   -1.487513
C       3.662484   -2.570592   -0.694090
C       1.118176   -2.894455   -0.984976
C      -0.006902   -1.986413   -1.505634
C      -1.402765   -2.271355   -0.957421
H       1.460879    1.417679    0.383216
H      -0.233672    1.709284   -0.082123
H       0.159608    1.156416    1.568822
H       0.060820    0.192627   -1.826571
H       2.334148   -0.217320   -2.431001
H       2.620123   -0.164556   -0.698275
H       2.561789   -2.521266   -2.529269
H       3.557040   -2.275234    0.356370
H       3.856687   -3.648594   -0.719504
H       4.547842   -2.064926   -1.095178
H       1.027726   -3.930581   -1.326231
H       1.097676   -2.903049    0.112115
H      -0.030404   -2.077909   -2.601498
H      -1.423450   -2.159907    0.128934
H      -2.143859   -1.582598   -1.377990
H      -1.716772   -3.290137   -1.207660
