12

C       0.006199    1.459332   -0.038939
N      -0.064116    0.014230   -0.120469
C      -1.205954   -0.681968    0.161171
C      -1.089827   -2.192849    0.020958
O      -2.244829   -0.144431    0.499944
H       0.750540    1.783725    0.697156
H       0.256920    1.903953   -1.008762
H      -0.978560    1.811214    0.270822
H       0.758210   -0.495437   -0.394640
H      -0.099097   -2.535431   -0.289700
H      -1.340977   -2.653959    0.979729
H      -1.829031   -2.534839   -0.708131
