20

C       0.212117    1.411490    0.006847
N       0.308987   -0.040553   -0.047553
C       0.538666   -0.678212    1.002042
O       0.730265   -0.235163    2.308151
C       0.861210   -1.599237    2.770537
C       1.795641   -1.952278    3.870681
C       0.284283   -2.028138    4.073087
C       0.686167   -2.148189    1.351536
C      -0.505626   -3.048865    1.050802
H       1.002397    1.847917   -0.614398
H      -0.743513    1.722104   -0.429349
H       0.290795    1.828866    1.017586
H       2.358809   -2.876922    3.795425
H       2.321733   -1.137215    4.355529
H      -0.174490   -1.263179    4.689910
H      -0.184525   -3.004783    4.134679
H       1.608851   -2.574655    0.945489
H      -1.427422   -2.636650    1.471180
H      -0.638497   -3.144924   -0.030174
H      -0.355779   -4.050509    1.466716
