22

C      -0.053461    1.607781    0.078614
C       0.086921    0.098588   -0.029848
C       0.810065   -0.581026   -1.180627
C       2.305568   -0.670905   -0.774824
C       3.401837   -0.902979   -1.771696
C       2.378507   -0.029089    0.599342
N       1.027034   -0.625605    0.933761
C       1.289288   -1.635471   -0.221195
C       1.159848   -3.114884   -0.119961
H       0.856166    2.140934   -0.208034
H      -0.857629    1.953303   -0.579938
H      -0.313706    1.892067    1.104324
H      -0.896044   -0.363211    0.117709
H       0.508700   -0.707853   -2.214789
H       3.715753    0.034223   -2.246213
H       4.284398   -1.346023   -1.295751
H       3.080958   -1.581592   -2.569582
H       3.134837   -0.503911    1.232663
H       2.456089    1.057660    0.707968
H       0.134256   -3.410103    0.128316
H       1.423819   -3.587410   -1.072231
H       1.820790   -3.520800    0.653942
