15

C       0.011802    1.460687   -0.041430
O       0.004413    0.035567   -0.008686
C       0.594080   -0.579501   -1.041003
C       0.687163   -1.958639   -1.188305
N       1.373094   -2.106218   -2.394475
C       1.636755   -0.873770   -2.876131
N       1.177951    0.076337   -2.078722
C       0.250227   -3.033905   -0.404683
C      -0.119946   -3.970119    0.259840
H       1.034547    1.850316   -0.049465
H      -0.511554    1.838178   -0.925459
H      -0.504496    1.778438    0.865374
H       1.616484   -2.988762   -2.812115
H       2.162264   -0.711746   -3.804781
H      -0.451965   -4.783003    0.856059
