20

C       0.201982    1.572765    0.175142
C      -0.134919    0.099902   -0.075322
C       0.591937   -0.473526   -1.285831
N       2.049432   -0.641033   -1.140045
C       2.063034   -2.010688   -1.201675
O       2.932932   -2.834129   -1.083151
C       0.525080   -2.023735   -1.473667
O      -0.285445   -2.680575   -0.548064
C      -0.221790   -4.094010   -0.663782
H       1.269027    1.709030    0.384075
H      -0.050131    2.194745   -0.691218
H      -0.350742    1.960758    1.035609
H       0.108388   -0.504599    0.803462
H      -1.212001   -0.016104   -0.243432
H       0.325239    0.084975   -2.191850
H       2.794588    0.026037   -1.002448
H       0.292448   -2.330925   -2.505064
H      -0.569438   -4.426058   -1.654206
H       0.797931   -4.463559   -0.506458
H      -0.883983   -4.503624    0.101823
