13

C      -0.017336    1.486842    0.032055
C      -0.010590    0.003578    0.037565
N      -0.042276   -0.742446   -1.031791
O      -0.021558   -2.106673   -0.592412
C       0.021845   -2.077032    0.738644
N       0.058321   -2.925019    1.735940
C       0.088830   -2.046183    2.794565
N       0.073983   -0.743146    2.520218
N       0.029617   -0.792167    1.155376
H       0.882923    1.871335    0.520724
H      -0.056152    1.845888   -0.996511
H      -0.883102    1.863482    0.584892
H       0.123902   -2.390142    3.818018
