16

C       0.654769    1.361086    0.028210
N      -0.014502    0.064207    0.003738
C       0.303113   -0.749893   -1.181221
C       1.256610   -1.830501   -0.703554
O       2.352167   -1.310131    0.061651
C       1.216688   -1.837535    0.761008
C       0.238301   -0.761312    1.196371
H       1.753758    1.293255    0.057845
H       0.365521    1.935024   -0.858039
H       0.317516    1.926569    0.902852
H      -0.599812   -1.228455   -1.590049
H       0.732321   -0.125800   -1.971072
H       1.466252   -2.712150   -1.304297
H       1.393522   -2.724964    1.363789
H       0.623680   -0.144942    2.014385
H      -0.685429   -1.243540    1.550791
