17

O       0.038088    0.010584    0.551841
C       0.033395    1.124869    0.114840
C      -1.238288    1.951655   -0.018380
C      -1.427994    2.854413   -1.240449
O      -0.427525    3.856841   -1.328190
C       0.711495    3.402555   -1.980839
C       2.040581    3.741393   -1.369835
C       1.550167    2.318864   -1.345544
O       1.230219    1.776624   -0.089745
H      -2.077154    1.255581    0.064971
H      -1.255784    2.595137    0.871328
H      -1.467843    2.265242   -2.167424
H      -2.383402    3.378082   -1.138175
H       0.627799    3.378327   -3.068621
H       2.872874    4.006534   -2.010905
H       1.993715    4.260610   -0.419484
H       2.021839    1.590565   -2.000789
