18

C       0.265825    1.445814    0.234642
C      -0.265490    0.082923   -0.246068
C       0.475032   -0.456474   -1.381292
C       1.096618   -0.878721   -2.322749
C       1.836766   -1.390957   -3.445705
C       3.316162   -1.760925   -3.257305
C       2.313770   -2.851435   -3.420852
C       1.468813   -0.858425   -4.738652
N       1.185042   -0.440508   -5.778975
H       1.309583    1.367306    0.550509
H       0.210203    2.187808   -0.566078
H      -0.325101    1.806140    1.081717
H      -0.232911   -0.638870    0.580105
H      -1.323728    0.175685   -0.521402
H       3.980028   -1.538049   -4.083852
H       3.719288   -1.566629   -2.271260
H       2.015310   -3.420780   -2.549484
H       2.279352   -3.387624   -4.361522
