17

C      -0.004324    1.542081    0.053240
C       1.523040    1.528727   -0.017604
C       2.099626    0.505279    0.949635
C       1.243188    0.033666    2.126081
C      -0.003699   -0.599672    1.446463
C       0.021960   -0.022896    0.024399
C       1.528073    0.048507   -0.363043
H      -0.482421    2.019449    0.917438
H      -0.440060    1.953427   -0.861163
H       2.146055    2.319133   -0.421172
H       3.178468    0.537964    1.058299
H       1.783376   -0.694287    2.739088
H       0.969206    0.863109    2.787234
H       0.093719   -1.690951    1.410338
H      -0.935663   -0.369032    1.973388
H      -0.668988   -0.497122   -0.672824
H       2.051577   -0.499241   -1.135264
