23

C       0.169701    1.520205    0.008224
C      -0.031005    0.006814    0.001511
C      -1.496190   -0.415340    0.014046
O      -2.394399    0.396229    0.027480
C      -1.765684   -1.915877    0.008772
C      -3.250289   -2.278489    0.020616
C      -3.489673   -3.790382    0.015337
C      -4.968655   -4.153175    0.027182
O      -5.073183   -5.569473    0.021116
H       1.234432    1.769657   -0.001369
H      -0.302226    1.979809   -0.863840
H      -0.283969    1.969607    0.895171
H       0.443416   -0.452537   -0.876841
H       0.461303   -0.462670    0.864526
H      -1.263746   -2.347929   -0.868947
H      -1.247792   -2.356726    0.872759
H      -3.720525   -1.823398    0.899992
H      -3.736580   -1.814794   -0.845444
H      -3.028885   -4.247022   -0.869773
H      -3.012686   -4.255709    0.887243
H      -5.449463   -3.721388    0.920418
H      -5.465830   -3.712587   -0.852698
H      -6.006153   -5.801716    0.028515
