14

N      -0.157696    1.326680   -0.039994
C       0.136563   -0.021852    0.066307
O       1.243012   -0.461606    0.233515
N      -1.039306   -0.809387    0.024175
C      -1.108508   -2.188347   -0.055337
O      -0.172010   -2.928766   -0.244830
C      -2.522760   -2.759895    0.104798
O      -2.499366   -4.142157   -0.063027
H       0.665916    1.901544   -0.136660
H      -0.936931    1.611645   -0.613749
H      -1.914573   -0.326602    0.165783
H      -2.898960   -2.479684    1.103570
H      -3.188588   -2.282406   -0.632980
H      -1.560321   -4.361234   -0.188607
