18

C      -0.092447    1.575394    0.010575
C       0.093979    0.066759    0.029518
O       0.926500   -0.343871   -1.068098
C       1.868132   -1.250366   -0.666197
O       2.613813   -1.788046   -1.423028
N       1.817037   -1.448970    0.753204
C       2.205700   -0.189857    1.455258
C       0.778307   -0.531243    1.260274
C      -0.089272   -0.998971    2.400043
H       0.863510    2.093680    0.121868
H      -0.549329    1.890699   -0.930912
H      -0.751442    1.880783    0.829427
H      -0.880138   -0.424300   -0.097920
H       2.669928   -0.352828    2.422460
H       2.657785    0.595031    0.855406
H      -0.591653   -0.150660    2.877617
H      -0.856877   -1.694789    2.045885
H       0.510380   -1.510284    3.156615
