25

C       0.002089    1.546035   -0.239152
C       0.018643    0.025392   -0.061120
C      -1.389547   -0.579722    0.047425
O      -2.174351   -0.217879   -1.087916
C      -1.390093   -2.108751    0.286456
C      -0.765660   -2.474802    1.643984
C      -2.795524   -2.680201    0.182590
C      -3.355752   -3.177314   -1.121293
C      -3.007258   -4.159448   -0.029505
H       1.014359    1.940132   -0.371042
H      -0.596689    1.825657   -1.109206
H      -0.436191    2.038194    0.636357
H       0.532665   -0.444876   -0.912976
H       0.602260   -0.234131    0.828459
H      -1.911544   -0.105670    0.891175
H      -1.814786   -0.682056   -1.851829
H      -0.779791   -2.571687   -0.506475
H       0.285727   -2.183950    1.713712
H      -1.304447   -1.984918    2.463787
H      -0.824901   -3.554203    1.809924
H      -3.511765   -2.194733    0.842340
H      -4.400355   -2.988643   -1.341890
H      -2.711933   -3.154814   -1.995251
H      -2.129823   -4.782817   -0.173890
H      -3.813292   -4.651710    0.503484
