12

N       0.214130    1.372192   -0.116611
C       0.010019    0.013315   -0.049493
C      -1.104927   -0.788170   -0.078831
O      -2.388079   -0.365266   -0.099404
N      -0.730368   -2.094364   -0.086899
C       0.576447   -2.070792   -0.058214
O       1.090719   -0.801745   -0.041773
C       1.477798   -3.152022   -0.024719
N       2.223041   -4.039613    0.001565
H       0.980144    1.707311    0.454215
H      -0.633229    1.898095    0.049059
H      -2.950385   -1.148957   -0.099283
