21

O       0.165348    1.314200   -0.133950
C       0.019423   -0.070346    0.008457
C      -0.505497   -0.703655    1.270338
C      -1.330139   -0.728095    0.002603
C      -2.640393    0.018059   -0.291418
C      -2.981621   -1.075565   -1.353258
C      -1.788347   -1.902321   -0.845228
C      -0.966393   -2.913017   -1.585802
C      -1.836259   -3.343267   -0.424662
H      -0.463739    1.749962    0.449399
H       0.830671   -0.571715   -0.511154
H      -0.047772   -1.625185    1.619954
H      -0.840532   -0.048327    2.071454
H      -3.339548    0.036312    0.549445
H      -2.521566    1.034795   -0.677784
H      -3.964916   -1.543060   -1.257792
H      -2.858402   -0.722711   -2.381019
H      -1.276158   -3.184686   -2.590171
H       0.110132   -2.910901   -1.442288
H      -1.345770   -3.622813    0.502963
H      -2.738214   -3.908491   -0.638651
