19

C      -0.071220    1.597472    0.064747
C       1.464244    1.404736    0.006474
O       1.734190    0.775531    1.269784
C       0.781228   -0.312239    1.254303
C       1.543271   -1.632033    1.097838
O       2.555797   -1.532783    0.118870
C       2.139300   -0.969588   -1.112006
C       1.197582    0.217975   -0.974139
C      -0.022152    0.046622   -0.011962
H      -0.464006    2.063195    0.971469
H      -0.501112    2.047254   -0.832444
H       2.183854    2.201981   -0.172514
H       0.187755   -0.305446    2.175370
H       2.057006   -1.893051    2.027600
H       0.824876   -2.439077    0.865801
H       3.059474   -0.686504   -1.634913
H       1.631829   -1.732840   -1.729963
H       0.891765    0.577169   -1.960162
H      -0.884668   -0.574579   -0.251997
