11

O       0.002436    0.016141    0.038225
C      -0.014013    1.202334    0.014154
O      -1.144390    1.969573    0.025302
C      -0.790596    3.335680    0.019423
C      -0.033718    3.831538    1.226032
C       0.704156    3.356003   -0.000367
O       1.094988    2.000023   -0.004354
H      -1.455332    3.950364   -0.571922
H      -0.045973    4.901985    1.399572
H      -0.013509    3.211741    2.116083
H       1.336046    3.988325   -0.608877
