18

C      -0.043216    1.496506   -0.055940
C       1.307786    0.851919    0.029928
C       0.060015   -0.018842    0.037418
C      -0.337223   -0.700662    1.234649
C      -0.674693   -1.280833    2.238171
C      -1.066283   -1.972195    3.431785
C      -2.185723   -1.425849    4.305864
C      -2.415561   -2.671791    3.504069
H      -0.415959    2.017517    0.817690
H      -0.359867    1.915175   -1.004685
H       1.927280    0.823115   -0.859391
H       1.854192    0.934429    0.961702
H      -0.136664   -0.556296   -0.886423
H      -0.258238   -2.465670    3.965233
H      -2.065176   -1.513871    5.379824
H      -2.664115   -0.511644    3.975728
H      -3.050262   -2.605383    2.628675
H      -2.453599   -3.623474    4.022085
