17

N       0.281470    1.275454   -0.201183
C      -0.014291   -0.075544   -0.084380
C      -1.109269   -0.772731    0.328522
C      -0.712650   -2.154621    0.325259
C       0.574716   -2.202548   -0.100446
O       1.017799   -0.915506   -0.349778
C       1.528987   -3.290899   -0.324210
C       2.621358   -3.173591   -1.329909
N       2.942576   -3.169318    0.105790
H       0.885897    1.479372   -0.987834
H      -0.549427    1.849747   -0.234950
H      -2.068810   -0.363203    0.599794
H      -1.319255   -3.004162    0.598499
H       1.100417   -4.271500   -0.136200
H       2.952083   -4.054993   -1.872699
H       2.690673   -2.240758   -1.881737
H       3.106012   -2.211012    0.408139
