20

C       0.082470    1.533888    0.128665
N       0.111831    0.092117    0.077546
C       1.047899   -0.564951   -0.851589
C       1.350238   -1.627681    0.229670
O       0.610933   -2.796505   -0.035304
C       2.830094   -1.963774    0.483930
C       2.975828   -2.874090    1.614865
C       3.022639   -3.635758    2.544915
C       0.663736   -0.646890    1.227792
H       1.074445    1.986738    0.328494
H      -0.284791    1.933283   -0.822878
H      -0.603375    1.864252    0.916092
H       0.596474   -0.944137   -1.773746
H       1.932504    0.045484   -1.099921
H       0.761625   -3.404720    0.699768
H       3.240390   -2.429201   -0.421138
H       3.400736   -1.045548    0.662346
H       3.099724   -4.300820    3.369402
H       1.390858   -0.068252    1.821603
H      -0.085600   -1.079838    1.898974
