18

C       0.004494    1.374965   -0.046550
O       0.043617   -0.055344    0.005196
C       0.656510   -0.563563    1.074516
N       1.219710    0.083452    2.072171
C       1.677137   -0.942501    2.861536
C       2.404734   -0.710817    4.142055
N       1.423458   -2.153383    2.399898
N       0.755046   -1.898881    1.229791
C       0.279670   -2.963997    0.379012
H       1.016988    1.787188   -0.058937
H      -0.520765    1.622005   -0.969370
H      -0.529884    1.776605    0.818552
H       1.785652   -0.141974    4.843327
H       2.671930   -1.665636    4.597978
H       3.316870   -0.129944    3.971106
H      -0.430626   -3.594814    0.920729
H      -0.214887   -2.518601   -0.484757
H       1.115898   -3.582666    0.041560
