23

C       0.756898    1.485512   -0.277000
C       0.093813    0.131884   -0.035250
C       0.587288   -1.027047   -0.954107
C       1.365601   -1.637523    0.244076
O       1.231322   -3.039257    0.459536
C       2.877290   -1.431149    0.174916
O       3.437917   -2.171903   -0.891285
C       0.574081   -0.697523    1.207501
C       1.261257   -0.021911    2.387903
H       1.848944    1.419233   -0.310285
H       0.429049    1.901733   -1.235727
H       0.492538    2.205140    0.505217
H      -0.990848    0.273454   -0.053840
H      -0.228597   -1.677644   -1.286927
H       1.189534   -0.759626   -1.826000
H       0.314773   -3.284728    0.301094
H       3.122332   -0.381231   -0.003530
H       3.318216   -1.721536    1.141718
H       3.069166   -3.059417   -0.802969
H      -0.278244   -1.276609    1.584751
H       2.117422    0.585860    2.080812
H       0.565072    0.637502    2.917773
H       1.621163   -0.765365    3.106980
