15

C      -0.031457    1.475225    0.067036
C       0.003076   -0.025800   -0.001903
N      -0.123811   -0.606347   -1.191523
C      -0.089903   -1.947646   -1.226723
C       0.069084   -2.719938   -0.091741
O       0.102286   -4.075479   -0.139107
C       0.192971   -1.999561    1.106210
O       0.350329   -2.714773    2.243087
N       0.162218   -0.686305    1.162124
H       0.895072    1.861379    0.504404
H      -0.160730    1.891085   -0.932139
H      -0.851802    1.811747    0.709464
H      -0.193006   -2.428854   -2.195928
H       0.218996   -4.402724    0.761239
H       0.419249   -2.077241    2.967384
