25

C      -0.037533    1.548007    0.274345
C      -0.014660    0.031270    0.006866
C       0.699955   -0.682665    1.168519
C      -1.465395   -0.479090   -0.077679
C       0.672483   -0.278458   -1.348538
C       2.113759    0.169554   -1.497034
C       3.270523   -0.737340   -1.109010
C       2.989191   -0.434881   -2.558646
O       2.414928   -1.418805   -3.372288
H       0.969913    1.955337    0.406284
H      -0.513530    2.089137   -0.551428
H      -0.601241    1.772050    1.186750
H       0.181887   -0.493101    2.115440
H       0.719896   -1.767446    1.013551
H       1.733070   -0.341128    1.278016
H      -2.013730    0.017712   -0.885776
H      -1.494050   -1.557528   -0.269128
H      -2.004476   -0.290687    0.857370
H       0.617449   -1.355273   -1.540352
H       0.080335    0.194733   -2.144153
H       2.280492    1.230866   -1.335555
H       4.150804   -0.310565   -0.639700
H       3.012833   -1.734992   -0.768246
H       3.676836    0.232964   -3.078169
H       3.081390   -2.094117   -3.534375
