16

C      -0.186043    1.447805   -0.056880
O       1.131814    0.967730    0.171693
C       0.077918    0.009022    0.124220
C      -0.259815   -0.666943    1.399691
N      -0.223578   -0.170458    2.572642
C      -0.688374   -1.205679    3.462837
C      -2.113551   -1.677770    3.242602
C      -0.984683   -2.401667    2.571326
O      -0.649874   -1.969950    1.260882
H      -0.629073    1.996755    0.771120
H      -0.385140    1.828833   -1.057649
H       0.081253   -0.649411   -0.741736
H      -0.238632   -1.248270    4.446989
H      -2.586352   -2.201410    4.066203
H      -2.773730   -1.058046    2.644884
H      -0.750489   -3.443092    2.747127
