17

O       0.709862    0.661174   -0.783589
C      -0.016065   -0.214728    0.038705
C       0.110523   -0.113374    1.587429
C      -1.392792   -0.411863    1.661025
C      -2.007057   -1.603444    2.337444
C      -2.344028   -0.200793    2.796785
C      -1.558513   -0.052908    0.178404
H       0.509472    1.561946   -0.507536
H       0.238652   -1.220443   -0.306175
H       0.803026   -0.793990    2.089865
H       0.342023    0.914842    1.893692
H      -2.769229   -2.162056    1.802832
H      -1.376921   -2.212498    2.978340
H      -1.941589    0.135467    3.747387
H      -3.333344    0.185938    2.572365
H      -1.855367    0.994448    0.038621
H      -2.197765   -0.685281   -0.443449
