19

C       0.886220    1.238698   -0.029426
N       0.000610    0.073993   -0.005218
C       0.204210   -0.850750   -1.132240
C       1.264595   -1.875576   -0.695001
O       2.557263   -1.342568   -0.979768
C       1.015468   -1.929522    0.800275
C       0.157042   -0.745451    1.204007
N       1.502792   -2.861152    1.513783
O       1.185642   -2.678199    2.871034
H       1.957020    0.989448    0.029370
H       0.717620    1.796532   -0.955478
H       0.631049    1.900776    0.804053
H      -0.735000   -1.378872   -1.343463
H       0.508045   -0.315986   -2.033978
H       1.136692   -2.857296   -1.168907
H       3.193483   -1.861477   -0.474376
H       0.599717   -0.180207    2.028717
H      -0.815096   -1.114805    1.561698
H       1.592411   -3.447192    3.284853
