21

C      -0.197737    1.565991   -0.020705
C       0.025288    0.060910    0.003070
C       1.230349   -0.614022   -0.738535
C       2.184635   -0.095911    0.381842
C       0.906000   -0.636100    1.107232
O       0.660798   -0.757973    2.461784
C       0.983595   -1.839034    0.164268
C       0.142764   -3.057453    0.035471
C       1.649021   -3.160559    0.297425
H       0.716314    2.149143    0.119015
H      -0.638672    1.873171   -0.975415
H      -0.902582    1.859550    0.766352
H      -0.921830   -0.462154   -0.165591
H       1.421391   -0.614911   -1.809638
H       3.098806   -0.672203    0.537756
H       2.378351    0.977312    0.419276
H       0.676665    0.119246    2.858829
H      -0.525191   -3.314752    0.851704
H      -0.217940   -3.349214   -0.946203
H       2.276447   -3.519852   -0.512568
H       1.963496   -3.485207    1.284507
