19

C       0.078564    1.508045   -0.128581
C      -0.021119    0.016907   -0.063924
O       0.483849   -0.728362   -1.178896
C      -0.204926   -1.873778   -0.596181
C       0.669041   -2.159465    0.636432
C       0.299537   -0.809655    1.273799
O      -1.130477   -0.980078    1.501641
C      -1.268547   -0.879537    0.078813
C      -2.647233   -0.688226   -0.469127
H       1.126366    1.826399   -0.124873
H      -0.391893    1.892039   -1.038524
H      -0.418317    1.951960    0.739250
H      -0.450358   -2.655318   -1.312856
H       0.338237   -2.990134    1.262818
H       1.717363   -2.272538    0.353521
H       0.841958   -0.418787    2.132675
H      -3.131774    0.180197   -0.013250
H      -2.599316   -0.537077   -1.551701
H      -3.267853   -1.568734   -0.272201
