16

C      -0.009956    1.399864   -0.001599
N      -0.015376   -0.058954   -0.013158
N      -0.052354   -0.640330   -1.238920
C      -0.044380   -1.945669   -1.253716
C      -0.005901   -2.769480   -0.104016
C       0.020279   -2.170520    1.128185
N       0.017946   -2.774301    2.343115
C       0.027472   -0.703562    1.202828
O       0.075633   -0.092948    2.270844
H       0.896009    1.769560    0.485696
H      -0.051845    1.730586   -1.037288
H      -0.869604    1.774881    0.559570
H      -0.071939   -2.388385   -2.244038
H      -0.003681   -3.849233   -0.210483
H       0.253030   -3.746901    2.433197
H       0.193484   -2.155892    3.122324
