19

O      -0.005970    1.360866   -0.542615
C      -0.014002   -0.008411   -0.189619
C      -1.397601   -0.455162    0.202263
C      -2.453208    0.353588    0.130025
C      -3.857021   -0.033664    0.502545
C      -4.044516   -1.514829    0.730928
O      -3.696581   -2.376615   -0.359293
C      -2.886352   -2.413660    0.818481
C      -1.477669   -1.883489    0.685165
H       0.874262    1.582537   -0.857555
H       0.334953   -0.639023   -1.027239
H       0.677956   -0.206814    0.649505
H      -2.303183    1.369808   -0.218118
H      -4.164644    0.499298    1.415009
H      -4.556738    0.300490   -0.276537
H      -4.964793   -1.800983    1.241750
H      -2.982425   -3.336068    1.392957
H      -0.911656   -2.543434    0.010552
H      -0.982122   -1.975011    1.663833
