19

O      -0.197556    1.443535    0.169874
C      -0.002530    0.043631    0.054390
C      -1.382117   -0.605673    0.057188
C      -1.342673   -2.141058   -0.114865
C      -0.667995   -2.769756    1.093552
O       0.423158   -3.281194    1.075577
C      -2.751391   -2.675373   -0.320202
C      -3.199635   -3.994489    0.140849
O      -3.579617   -2.803132    0.837726
H       0.665484    1.865608    0.209873
H       0.524867   -0.213767   -0.878865
H       0.605664   -0.346521    0.884835
H      -1.900700   -0.349960    0.988502
H      -1.972127   -0.169910   -0.757331
H      -0.740722   -2.398597   -0.995010
H      -1.259069   -2.697272    2.031986
H      -3.263770   -2.240362   -1.180779
H      -4.005690   -4.505257   -0.382909
H      -2.508137   -4.647103    0.672739
