18

C      -0.092545    1.367173    0.832976
O      -0.092717   -0.028882    1.031981
C       0.857118   -0.695863    0.235745
C       0.740581   -2.159940    0.518163
C      -0.460368   -2.960517    0.851151
C       0.755409   -2.969273    1.795209
C       1.852869   -3.727217    1.128778
N       2.660370   -4.621627    1.469315
O       1.746534   -3.024764   -0.080077
H      -0.332635    1.628579   -0.209022
H      -0.856872    1.787679    1.489995
H       0.881335    1.813393    1.085799
H       0.678878   -0.508268   -0.837674
H       1.881720   -0.356450    0.460810
H      -1.299261   -2.392603    1.238625
H      -0.706660   -3.842453    0.268480
H       0.699826   -2.678272    2.833091
H       3.303944   -4.846498    0.708750
