23

C      -0.329991    1.479827   -0.007251
C       0.111390    0.012414   -0.073957
C       1.074489   -0.252897   -1.209377
C       1.798842   -1.371103   -1.262091
C       1.674183   -2.431267   -0.196619
C       1.480835   -1.838565    1.209889
C       2.731475   -1.135580    1.817913
C       2.004077    0.233482    1.757199
C       0.707106   -0.475228    1.259712
H       0.519891    2.142304    0.188310
H      -0.785850    1.795226   -0.951817
H      -1.065492    1.635646    0.788805
H      -0.791628   -0.593460   -0.256235
H       1.151820    0.493551   -1.996817
H       2.472123   -1.553364   -2.095474
H       0.814894   -3.076341   -0.435572
H       2.550075   -3.090951   -0.198968
H       1.056406   -2.604595    1.864988
H       2.978068   -1.470398    2.828737
H       3.635417   -1.206634    1.205947
H       1.910975    0.764773    2.707439
H       2.434558    0.919119    1.022720
H      -0.079122   -0.473621    2.021165
