15

N       0.010656    1.379281    0.153154
C      -0.010793    0.003065    0.060248
C      -1.180686   -0.707016    0.043314
O      -2.393705   -0.096633    0.055274
C      -1.179802   -2.141091    0.003633
N      -2.304772   -2.774374   -0.017119
N       0.109489   -2.684143   -0.012393
C       1.231307   -1.906907   -0.006748
N       1.220947   -0.618893    0.027706
H       0.858319    1.801982   -0.193874
H      -0.840558    1.840987   -0.130192
H      -3.031857   -0.834218    0.023966
H      -2.207639   -3.785829   -0.051361
H       0.204699   -3.688524   -0.041064
H       2.175098   -2.443819   -0.034463
