14

O       0.123938    1.397132    0.018520
C       0.051711   -0.010813   -0.054111
C      -1.374667   -0.507795   -0.088073
C      -1.889256   -1.322627   -1.034656
C      -3.255788   -1.748206   -0.961021
N      -3.850560   -2.542870   -1.756300
N      -4.000116   -1.169688    0.154401
N      -3.590099   -0.438078    1.009373
O      -2.075933   -0.046629    0.947389
H      -0.374009    1.671079    0.796946
H       0.559351   -0.315630   -0.972968
H       0.565917   -0.490672    0.794540
H      -1.282138   -1.662367   -1.862126
H      -4.825026   -2.662900   -1.476067
