21

O       0.082933    1.387402   -0.127263
C       0.024783   -0.034361    0.001731
C       0.750414   -0.504190    1.270827
C       0.052015    0.022829    2.533707
C      -1.443836   -0.145632    2.457914
C      -2.089954   -0.415436    1.320298
C      -1.412941   -0.538421    0.004298
C      -2.226931   -0.324677   -1.254944
C      -1.782978   -1.711245   -0.891093
H      -0.586848    1.757595    0.457685
H       0.545450   -0.415806   -0.883541
H       0.754469   -1.601056    1.282835
H       1.791108   -0.168286    1.240143
H       0.440503   -0.490866    3.421086
H       0.301437    1.083785    2.682717
H      -2.006881   -0.039372    3.381791
H      -3.170519   -0.545919    1.327230
H      -3.277196   -0.075711   -1.143301
H      -1.732848    0.180503   -2.077446
H      -0.988995   -2.169502   -1.471866
H      -2.524363   -2.411439   -0.521323
