16

C      -0.138803    1.417265   -0.091579
N       0.076267   -0.021952   -0.015006
C       1.445535   -0.499191   -0.160894
C       0.758376   -0.526427    1.156360
C       1.127736    0.165680    2.472388
O       0.701779   -1.034449    3.188863
C       0.331777   -1.678630    2.015341
N      -0.153393   -2.815274    1.820216
H       0.693092    2.013599    0.318938
H      -0.273359    1.695900   -1.140571
H      -1.053226    1.676789    0.450259
H       1.570474   -1.421005   -0.721388
H       2.240239    0.237734   -0.281131
H       2.186581    0.372201    2.646754
H       0.517243    1.028358    2.753515
H      -0.295718   -3.319811    2.696263
