20

C       0.992079   -0.292270    0.056921
C      -0.339536   -0.041649   -0.619871
O      -1.133174    0.781450   -0.229886
C      -0.634916   -0.835811   -1.902135
O       0.005240   -2.088880   -1.990844
C      -0.645608   -3.122223   -1.271312
C       0.122209   -4.412099   -1.453375
C       0.801239   -4.722616   -2.731819
N       1.588778   -4.397908   -1.522880
H       1.811096   -0.184560   -0.662685
H       1.119510    0.411801    0.879784
H       1.046910   -1.317386    0.437132
H      -1.724373   -0.916783   -2.014333
H      -0.258564   -0.234262   -2.740075
H      -0.704202   -2.870411   -0.199187
H      -1.679978   -3.243106   -1.632125
H      -0.286217   -5.232241   -0.865742
H       0.880074   -5.752342   -3.068097
H       0.749117   -3.978294   -3.519899
H       1.890518   -3.428480   -1.598923
