13

C      -0.062567    1.464427    0.010287
C       0.003302    0.012061    0.002476
C       0.051425   -1.192422   -0.003956
C       0.099192   -2.604238   -0.011443
C       1.202227   -3.436050   -0.022117
N       0.675435   -4.678665   -0.025384
N      -0.673200   -4.645699   -0.017369
N      -1.027167   -3.399121   -0.008943
H       0.940057    1.905628    0.002949
H      -0.599264    1.841516   -0.867393
H      -0.582493    1.832819    0.901653
H       2.260409   -3.240716   -0.027283
H       1.147629   -5.568698   -0.032677
