21

C      -0.162615    1.643944    0.045550
C      -0.030588    0.125415    0.028227
C      -1.397442   -0.516449   -0.249193
O      -1.933566   -0.134572   -1.512382
C       1.121265   -0.582724   -0.758101
C       2.417736    0.107037   -0.285783
C       2.107909    0.075808    1.246427
C       0.740497   -0.632106    1.153134
O       1.030647   -1.693377    0.187141
H       0.793524    2.166912    0.100868
H      -0.685476    1.974459   -0.856078
H      -0.763965    1.959753    0.906342
H      -1.326678   -1.605239   -0.158337
H      -2.120707   -0.158650    0.492943
H      -1.443653   -0.606345   -2.192729
H       1.040589   -0.881461   -1.805477
H       3.289261   -0.495616   -0.548522
H       2.556628    1.111569   -0.691913
H       2.821876   -0.530307    1.807236
H       2.053939    1.065095    1.706978
H       0.260885   -0.983050    2.068459
