13

O       0.367709    0.896457   -0.778650
C      -0.013946    0.122761    0.323416
C      -1.417954   -0.421171    0.212876
N      -1.884421   -1.178573    1.218815
C      -3.119477   -1.618845    1.052272
C      -3.848211   -1.296704   -0.098160
N      -3.328858   -0.542147   -1.057965
N      -2.085741   -0.097645   -0.892718
H      -0.389562    0.904213   -1.382805
H       0.665775   -0.733450    0.458732
H       0.044980    0.707440    1.255100
H      -3.546533   -2.237613    1.838219
H      -4.862909   -1.646794   -0.256031
