14

O       0.115123    1.395966   -0.052806
C       0.053941    0.005209   -0.049305
C      -1.358495   -0.528961   -0.008601
N      -2.306190    0.364825    0.017230
C      -3.629776   -0.010079    0.054871
O      -4.577524    0.711092    0.080323
O      -3.900255   -1.418185    0.064840
C      -2.907575   -2.301538    0.037543
C      -1.609476   -1.935756    0.000001
H      -0.806822    1.701858   -0.027332
H       0.544189   -0.416919   -0.943846
H       0.594359   -0.414705    0.816866
H      -3.265422   -3.326210    0.049105
H      -0.814033   -2.667358   -0.021878
