19

C      -0.025842    1.501547    0.033799
C       0.049317   -0.007709    0.024696
C       0.708866   -0.715696   -1.191064
C       0.470113   -2.159094   -0.743347
C       0.492399   -2.167047    0.757051
C       0.744555   -0.728440    1.212762
C      -0.852957   -2.185160    0.026559
C      -1.308128   -0.759312    0.040827
O      -2.416853   -0.293897    0.059782
H       0.972815    1.950271    0.020827
H      -0.577301    1.868907   -0.837075
H      -0.550231    1.859655    0.925010
H       0.208557   -0.469136   -2.133782
H       1.773513   -0.474970   -1.287175
H       0.775664   -3.015512   -1.329724
H       0.815106   -3.029582    1.324982
H       1.811623   -0.488583    1.279785
H       0.272483   -0.491967    2.172474
H      -1.526012   -3.029981    0.032084
