9

O       0.022868    1.413796    0.009279
C      -0.019548    0.019051    0.002586
C      -1.465686   -0.435777    0.013563
O      -2.427868    0.280190    0.026111
C      -1.607237   -1.911644    0.007399
N      -1.705711   -3.063602    0.002553
H       0.944144    1.690016    0.001988
H       0.452321   -0.435295   -0.887249
H       0.468523   -0.444256    0.878966
