17

C      -0.296653    1.359299   -0.000582
C       0.063691   -0.119823   -0.159100
C       1.015878   -0.373878   -1.321700
O       1.376262   -1.733855   -1.444130
C       0.581671   -2.306713   -2.469192
C       0.091820   -1.121370   -3.271473
N      -0.498689   -1.168257   -4.382800
O       0.409419    0.001266   -2.567043
H       0.597737    1.968463    0.171430
H      -0.792504    1.738837   -0.898051
H      -0.968023    1.508112    0.849355
H       0.553028   -0.498825    0.745162
H      -0.839007   -0.723609   -0.312103
H       1.935210    0.214915   -1.214093
H       1.193312   -2.980186   -3.074024
H      -0.267721   -2.874939   -2.064875
H      -0.739677   -0.231869   -4.709967
