22

C      -0.017877    1.512313   -0.034024
C       0.016645   -0.006183   -0.024026
O       0.676101   -0.443681   -1.195088
C       0.761048   -1.833118   -1.284404
C       1.491535   -2.194618   -2.588009
O       1.883270   -1.332180   -3.347850
N       1.665885   -3.536240   -2.834765
C       2.374765   -3.940993   -4.036566
C       1.257487   -4.615820   -1.959694
H       0.997538    1.917055   -0.058570
H      -0.551656    1.876103   -0.916174
H      -0.523108    1.887997    0.860798
H       0.543711   -0.377190    0.872304
H      -1.006964   -0.418064    0.014212
H       1.306413   -2.254443   -0.421015
H      -0.243480   -2.293184   -1.278808
H       3.294664   -4.483544   -3.781795
H       1.747925   -4.600901   -4.649512
H       2.626323   -3.045672   -4.602282
H       0.667599   -4.253803   -1.120098
H       0.645494   -5.341970   -2.510609
H       2.128605   -5.152773   -1.558308
