25

C      -0.075209    1.437118    0.021381
O      -0.087598    0.032576   -0.038674
C       0.724059   -0.480149   -1.077044
C       0.637002   -1.996984   -1.050968
C      -0.678104   -2.616479   -1.635299
C      -1.979057   -1.826865   -1.661891
C       0.079170   -2.877409   -2.965854
C       1.419523   -2.722183   -2.198570
C       2.599126   -2.050773   -2.890372
H       0.939111    1.830721    0.197366
H      -0.459418    1.891915   -0.906107
H      -0.718265    1.737330    0.852568
H       0.400211   -0.069281   -2.048892
H       1.769723   -0.158307   -0.930935
H       0.887915   -2.319638   -0.035836
H      -0.852691   -3.573835   -1.130927
H      -1.863117   -0.869413   -2.180127
H      -2.757203   -2.392391   -2.187715
H      -2.335733   -1.611453   -0.650789
H      -0.106554   -3.820554   -3.487249
H      -0.070499   -2.057365   -3.678147
H       1.737151   -3.703213   -1.827805
H       2.330172   -1.069924   -3.296602
H       3.443637   -1.909962   -2.206309
H       2.952345   -2.664395   -3.726793
