15

C      -0.058299    1.499212    0.042350
C       0.000649    0.045760    0.020059
C       0.055460   -1.156576    0.005420
C       0.084741   -2.624623   -0.019567
O      -1.207948   -3.201831    0.145355
C       0.748950   -3.109800   -1.238594
C       1.273819   -3.523960   -2.246913
C       1.865118   -3.986914   -3.381265
C       2.389194   -4.398411   -4.388162
H       0.647991    1.911271    0.770990
H       0.186458    1.921741   -0.937980
H      -1.059779    1.847932    0.316674
H       0.652571   -2.986119    0.848285
H      -1.760171   -2.874188   -0.574333
H       2.851128   -4.760444   -5.272944
