20

C      -0.110810    1.440684    0.113492
C      -0.199224   -0.070322    0.225984
O       0.889174   -0.519057    1.032662
C       0.910746   -1.901115    1.216002
C       2.013404   -2.379483    2.178385
O       1.010141   -2.975632    3.056354
C      -0.025817   -2.495128    2.266963
N      -1.264743   -2.536750    2.427146
C      -1.809012   -3.163210    3.625315
H       0.841198    1.740671   -0.334009
H      -0.924051    1.820446   -0.511983
H      -0.187703    1.904544    1.100841
H      -1.149155   -0.381517    0.678948
H      -0.135284   -0.541516   -0.768951
H       0.875801   -2.438337    0.256302
H       2.711045   -3.132595    1.806579
H       2.540932   -1.561452    2.673701
H      -2.504293   -2.466719    4.105510
H      -2.389708   -4.046353    3.336113
H      -1.049434   -3.466729    4.354747
