22

C       0.148823    1.355778   -0.220408
C      -0.098792   -0.154483   -0.285510
C      -1.563438   -0.577206   -0.030592
C      -2.513702   -0.119069   -1.145028
C      -1.620246   -2.068535    0.287603
C      -2.798297   -2.959453   -0.015279
N      -1.550811   -3.117907   -0.716578
C      -1.360755   -3.072620   -2.078956
O      -2.133452   -3.505294   -2.901816
H       1.212113    1.579305   -0.349673
H      -0.394711    1.897653   -1.000054
H      -0.161028    1.765105    0.747791
H       0.219817   -0.537845   -1.263609
H       0.541144   -0.649416    0.455949
H      -1.882203   -0.083589    0.900236
H      -2.305111   -0.615394   -2.097902
H      -3.558576   -0.311535   -0.887506
H      -2.416568    0.957079   -1.309003
H      -1.054713   -2.318832    1.186129
H      -3.061891   -3.751774    0.680774
H      -3.629385   -2.553301   -0.584215
H      -0.365481   -2.665070   -2.340528
