22

C       0.107355    1.392742    0.432210
C       0.030406   -0.095693    0.081249
C      -1.385238   -0.540300   -0.247225
C      -1.677646   -2.051054   -0.336779
C      -2.700544   -1.791871    0.800563
C      -4.163913   -1.891423    0.384879
C      -2.432093   -2.501823    2.120140
O      -2.289019   -0.392822    0.875720
H       1.125390    1.685648    0.705674
H      -0.204706    2.015567   -0.413626
H      -0.552685    1.617132    1.274902
H       0.671996   -0.320555   -0.781687
H       0.402573   -0.697645    0.919651
H      -1.758593    0.030178   -1.111253
H      -2.096259   -2.407462   -1.279793
H      -0.837080   -2.689262   -0.052766
H      -4.461745   -2.937398    0.251814
H      -4.807087   -1.446125    1.150805
H      -4.338118   -1.360859   -0.555714
H      -1.381981   -2.401909    2.408061
H      -3.046569   -2.069628    2.916891
H      -2.671656   -3.568287    2.043701
