23

C      -0.479004    1.496675   -0.026173
C      -0.031433    0.035216   -0.036157
C       0.772307   -0.421560   -1.288158
C       1.921803   -1.271416   -0.685505
C       3.227794   -0.482704   -0.514038
C       2.974906    0.797445    0.305697
C       2.036623    0.529012    1.499956
C       0.887234   -0.422371    1.125559
O       1.448308   -1.636684    0.618273
H       0.361640    2.187861   -0.142068
H      -1.179916    1.693444   -0.844030
H      -0.989967    1.747336    0.910136
H      -0.927636   -0.591219    0.030551
H       0.151600   -1.017978   -1.961027
H       1.153519    0.426598   -1.865230
H       2.096511   -2.200264   -1.234931
H       3.940960   -1.131654    0.006785
H       3.663046   -0.236829   -1.490046
H       3.922577    1.218658    0.657731
H       2.532216    1.560098   -0.345054
H       2.597301    0.043434    2.307140
H       1.647789    1.469974    1.905601
H       0.310485   -0.680766    2.019045
