18

O       0.071969    1.399069   -0.026145
C       0.059477   -0.011999   -0.015260
C      -1.349948   -0.562419   -0.033291
C      -2.340223   -0.510509   -1.259399
C      -3.096947   -1.522850   -0.374342
C      -1.727438   -2.087798    0.057442
O      -3.470078   -0.701394    0.784129
C      -2.297640   -0.034643    1.021027
N      -2.066808    0.838876    1.903135
H      -0.426909    1.671272    0.759767
H       0.606151   -0.345891   -0.904215
H       0.584609   -0.420429    0.864514
H      -2.836817    0.434672   -1.484078
H      -1.907597   -0.954750   -2.157664
H      -3.954843   -2.115590   -0.680869
H      -1.240494   -2.683350   -0.717071
H      -1.670021   -2.580365    1.030418
H      -2.888278    1.024135    2.479576
