18

C      -0.140793    1.510235    0.004825
C       1.395732    1.508494   -0.210329
C       1.461221    0.143763    0.544090
C      -0.065350   -0.017903    0.262331
C       2.407658   -0.906886    0.076823
N       3.253234   -1.455282    0.920619
O       3.986149   -2.384697    0.184637
C       3.555002   -2.364403   -1.083602
C       2.559464   -1.457867   -1.233972
H      -0.421916    2.059004    0.908016
H      -0.768148    1.855437   -0.819664
H       1.655313    1.390328   -1.266715
H       1.980903    2.333549    0.201556
H       1.633855    0.308697    1.610394
H      -0.676738   -0.442899    1.061313
H      -0.240981   -0.590742   -0.653260
H       4.048701   -3.046100   -1.759153
H       2.015443   -1.214730   -2.131263
