17

C       0.061573    1.491882   -0.076967
C       0.000650   -0.002462    0.033219
C      -1.314342   -0.788145   -0.153991
C      -0.716779   -2.101737    0.395121
N      -0.366481   -1.786433    1.811155
C       0.625624   -0.870935    1.242164
C       0.815353   -1.789002    0.032541
O       0.867098   -0.722545   -0.907979
H       1.084088    1.852039    0.069153
H      -0.279515    1.824473   -1.063215
H      -0.580807    1.954400    0.679462
H      -2.156729   -0.438097    0.450947
H      -1.597238   -0.813786   -1.208828
H      -1.212279   -3.050860    0.196771
H      -1.121916   -1.342067    2.333636
H       1.408685   -0.439102    1.864982
H       1.540419   -2.588869   -0.095865
