13

N       0.129588    1.410046    0.132191
C       0.004970    0.023496    0.037935
C      -1.079814   -0.842945    0.008830
N      -2.448969   -0.895847   -0.028518
N      -2.852539   -2.068527   -0.062522
O      -1.649946   -3.006872   -0.054198
C      -0.605217   -2.179331   -0.008113
C       0.762646   -2.160994    0.001304
N       1.096133   -0.795605    0.039101
H       0.584610    1.830769   -0.671532
H      -0.772132    1.849778    0.264048
H       1.521438   -2.920873   -0.030374
H       2.035890   -0.449505    0.141115
