16

C      -0.004041    1.380191   -0.002039
O      -0.036748   -0.032832    0.115382
C       0.623233   -0.519302    1.207453
C       0.340491   -0.302496    2.717215
C       1.507773   -1.311273    2.701473
C       0.999329   -2.016774    1.404756
O       2.277881   -1.928132    0.712975
C       2.180701   -0.674870    1.448289
H       1.026228    1.750785   -0.092372
H      -0.555858    1.635793   -0.908408
H      -0.481367    1.868340    0.858483
H       0.560247    0.685743    3.130008
H      -0.619024   -0.672122    3.088829
H       2.024170   -1.788005    3.530053
H       0.389893   -2.911488    1.283104
H       2.997738    0.042688    1.380399
