20

C       0.121361    1.495343   -0.275014
C       0.032226   -0.027155   -0.113704
C      -1.437500   -0.474383   -0.055222
C       0.811147   -0.753550   -1.257717
N       2.183071   -0.307490   -1.402519
C       2.564355    0.538773   -2.398840
O       1.806106    1.152063   -3.120854
C       0.826114   -2.255427   -1.025335
O       1.830276   -2.879826   -0.784547
H       1.156146    1.842135   -0.248296
H      -0.312750    1.816661   -1.226584
H      -0.422767    1.987585    0.537500
H       0.519845   -0.301954    0.831927
H      -1.939445   -0.298455   -1.013886
H      -1.555157   -1.531640    0.198334
H      -1.972948    0.102046    0.704970
H       0.285381   -0.547530   -2.199977
H       2.876846   -0.929036   -1.008059
H       3.666194    0.623769   -2.467854
H      -0.159777   -2.757638   -1.069508
