20

C       0.197336    1.657858    0.032014
C       0.121895    0.131645   -0.010595
C       0.811678   -0.569771   -1.166075
C       2.295396   -0.611564   -1.141251
N       1.528964   -1.788769   -0.703874
C       1.372373   -1.875324    0.759135
C       2.638832   -2.264724    1.510677
C       0.756380   -0.541795    1.217264
O       0.766960   -0.101174    2.337634
H       1.232028    2.002534   -0.056278
H      -0.379612    2.105691   -0.781936
H      -0.198523    2.020841    0.984425
H      -0.936833   -0.170339    0.001508
H       0.283704   -0.665441   -2.110276
H       2.855303   -0.749558   -2.060997
H       2.809933   -0.011755   -0.391321
H       0.604055   -2.641502    0.945169
H       3.452975   -1.562659    1.307802
H       2.442124   -2.249206    2.585612
H       2.967455   -3.265319    1.219748
