15

N       0.252018    1.330377   -0.365337
C       0.070140   -0.035761   -0.135803
C      -1.058104   -0.765747    0.081130
O      -0.738226   -2.052805    0.350120
N       0.632410   -2.193886    0.301284
C       1.111054   -1.004763    0.023709
C       2.597278   -0.787967   -0.069901
C       3.000264   -0.129023   -1.311678
C       3.309148    0.433074   -2.328650
H       1.010245    1.510786   -1.013653
H      -0.587908    1.797480   -0.679986
H      -2.109663   -0.528080    0.084654
H       2.930730   -0.179285    0.781564
H       3.091990   -1.760222    0.023609
H       3.605398    0.905850   -3.232518
