22

C      -0.731154   -0.572428   -1.164034
C      -1.000434    0.834008   -0.754689
N      -0.072757   -0.003957    0.002687
C      -0.470405   -0.421718    1.322462
C      -0.413398   -1.872925    1.698795
C      -1.749806   -1.151025    1.721855
C      -2.227348   -0.587765    3.051186
C      -0.989954    0.132078    3.641833
C      -0.161798    0.587542    2.422094
H      -1.534858   -1.291087   -1.017771
H      -0.081019   -0.789070   -2.007216
H      -0.556652    1.664646   -1.296005
H      -1.975700    1.037373   -0.315971
H      -0.264201   -2.571864    0.882007
H       0.058560   -2.178199    2.627991
H      -2.492920   -1.451099    0.990682
H      -3.038365    0.128331    2.869519
H      -2.621490   -1.352151    3.730692
H      -1.264642    0.964470    4.294861
H      -0.407830   -0.564259    4.253561
H       0.908921    0.659319    2.638256
H      -0.488518    1.577144    2.078551
