21

C      -0.215470    1.536180    0.109587
C      -0.143932    0.043470    0.057376
C      -0.225265   -0.756011   -1.011462
C      -0.085163   -2.195048   -0.671684
C      -0.736909   -3.280553   -1.496198
C       0.760028   -3.121332   -1.527553
C      -0.070267   -2.236184    0.861789
C       0.152662   -0.767082    1.308041
O       1.469863   -0.497899    1.799118
H       0.676242    1.944962    0.598511
H      -0.300412    1.977198   -0.887369
H      -1.076417    1.870469    0.703188
H      -0.369649   -0.417066   -2.033543
H      -1.150040   -4.132826   -0.965910
H      -1.303082   -2.986395   -2.374184
H       1.215468   -2.717663   -2.426145
H       1.364320   -3.863818   -1.016173
H      -1.035532   -2.594013    1.235831
H       0.705441   -2.884144    1.279155
H      -0.496670   -0.498429    2.148382
H       2.076286   -0.622246    1.059836
