21

C       0.001939    1.551067    0.037494
C       0.029642    0.018973   -0.013357
C       0.741047   -0.494649   -1.272942
O       0.858740   -1.905741   -1.255160
C       1.764266   -2.370603   -0.273252
C       1.562263   -1.753962    1.108731
C       1.781371   -2.674181    2.285690
O       2.129968   -0.435997    1.262229
C       0.701603   -0.564494    1.213369
H       1.018350    1.951841    0.104956
H      -0.471127    1.967386   -0.857949
H      -0.558254    1.908000    0.907646
H      -0.999938   -0.363954   -0.030009
H       0.161320   -0.244894   -2.166270
H       1.731693   -0.022201   -1.359185
H       1.616901   -3.453793   -0.221696
H       2.806305   -2.183906   -0.583623
H       2.780859   -3.122528    2.245307
H       1.697066   -2.119515    3.223431
H       1.048620   -3.488049    2.288745
H       0.204866   -0.368604    2.166360
