20

C       1.461147    0.520748    0.603077
N       0.132902    0.191865    0.111279
C      -0.900587    1.047475    0.362673
O      -0.836601    2.042989    1.056066
C       0.032890   -0.909415   -0.823007
C       0.535033   -2.308226   -0.364379
C      -0.619589   -2.919227   -1.202438
O      -1.266916   -4.084172   -0.772167
C      -1.348073   -1.549624   -1.124972
H       1.888968   -0.319918    1.159183
H       2.137607    0.765719   -0.226363
H       1.368406    1.386191    1.258649
H      -1.834049    0.731422   -0.134931
H       0.531239   -0.639200   -1.765187
H       1.561634   -2.602712   -0.589626
H       0.342128   -2.444919    0.705859
H      -0.290825   -3.128243   -2.224369
H      -1.563528   -3.948333    0.134123
H      -1.991779   -1.527504   -0.239393
H      -1.914478   -1.199634   -1.989745
