23

C       0.376034    0.967993    0.473812
O      -0.341936    0.131852   -0.409373
C       0.477096   -0.516739   -1.330788
C       1.191789   -1.783265   -0.919828
C      -0.000255   -1.834878   -1.859714
C      -1.322930   -2.426342   -1.409655
C      -1.387197   -3.932707   -1.567238
C      -0.916513   -4.847644   -0.464607
C      -2.388975   -4.739849   -0.782192
H       1.108788    0.400845    1.065915
H       0.911837    1.763133   -0.067116
H      -0.351713    1.427807    1.146812
H       0.991845    0.159569   -2.016181
H       2.185784   -1.982647   -1.305385
H       1.023056   -2.121503    0.097191
H       0.235836   -2.019512   -2.905485
H      -1.505997   -2.152621   -0.365253
H      -2.134459   -1.964341   -1.988556
H      -1.194190   -4.283041   -2.579035
H      -0.396233   -5.760959   -0.731756
H      -0.564817   -4.392840    0.455684
H      -3.020978   -4.210819   -0.075898
H      -2.875352   -5.578803   -1.267804
