17

O       0.047650   -0.114883    0.173577
C       0.039643    1.084994    0.100120
C       1.278291    1.958046    0.039912
C       1.276365    2.819655   -1.233028
C       2.522202    3.707730   -1.238404
C       2.816619    4.425681    0.070313
O       3.514648    5.398607    0.135334
O       2.331973    3.889344    1.220381
C       1.302366    2.892075    1.253410
H      -0.919933    1.653495    0.059457
H       2.151403    1.297657    0.053560
H       1.253846    2.193095   -2.129814
H       0.369172    3.437621   -1.252489
H       3.410531    3.097228   -1.446562
H       2.483575    4.470118   -2.019323
H       0.336319    3.408099    1.345754
H       1.472886    2.333010    2.176753
