18

C      -0.072501   -1.170756   -0.144826
C       0.039564    0.010847    0.036420
C       0.141854    1.444434    0.274410
O       1.339748    1.945503   -0.289683
C       1.470721    3.331141   -0.138768
C       1.863570    3.945177    1.264708
C       3.064541    4.589954    0.565774
N       3.884879    3.459747    0.080510
C       2.737137    3.930402   -0.732979
H      -0.162015   -2.216084   -0.308698
H      -0.733285    1.955435   -0.164197
H       0.110470    1.640970    1.358770
H       0.581331    3.848380   -0.531999
H       1.120546    4.647568    1.646994
H       2.135594    3.219174    2.034070
H       3.496589    5.565353    0.748495
H       4.719981    3.853651   -0.353048
H       2.881613    4.265833   -1.752393
