13

F       0.013424    0.020372    0.003274
C       0.001475    1.349810    0.010260
C      -1.223980    2.021345    0.030194
N      -1.307017    3.342887    0.038112
C      -0.163511    4.046726    0.026362
C      -0.254082    5.536525    0.035253
O      -1.275585    6.171660    0.052270
C       1.096656    3.445680    0.006324
C       1.190082    2.058381   -0.002073
H      -2.148290    1.449061    0.039677
H       0.741853    6.037159    0.024407
H       1.991528    4.059522   -0.002554
H       2.139494    1.536294   -0.017522
