21

C      -0.072342    1.498934    0.197479
C       0.031918   -0.029512   -0.001596
C       0.759148   -0.388342   -1.298665
C       0.735312   -0.639847    1.209051
O       1.889605   -1.015384    1.164224
C      -0.038448   -0.740581    2.498536
O      -1.372599   -0.311012    2.496024
C       0.359316   -1.856584    3.450662
C       0.731798   -0.441321    3.768452
H       0.924847    1.946623    0.263503
H      -0.588812    1.951600   -0.654593
H      -0.628557    1.743625    1.104778
H      -0.992083   -0.422684   -0.027100
H       1.790479   -0.027596   -1.273695
H       0.795870   -1.470926   -1.450068
H       0.251399    0.062763   -2.156745
H      -1.922361   -1.027456    2.160953
H      -0.450740   -2.305359    4.014763
H       1.141178   -2.524736    3.110050
H       1.767679   -0.149242    3.646578
H       0.169270    0.074162    4.537714
