21

O      -0.107639    1.392979    0.323860
C       0.008701    0.011064    0.017787
C      -1.379780   -0.608036    0.098840
C      -1.385142   -2.104091   -0.239266
C      -2.771202   -2.705256   -0.139618
C      -3.091211   -4.191469   -0.113438
C      -2.094036   -4.931125    0.771405
O      -2.294072   -3.988815    1.859604
C      -3.319416   -3.326625    1.109786
H       0.771356    1.781589    0.296550
H       0.424738   -0.138818   -0.992756
H       0.683779   -0.498721    0.724732
H      -1.774152   -0.452537    1.109724
H      -2.042199   -0.061344   -0.584005
H      -0.989706   -2.256790   -1.252507
H      -0.715065   -2.631925    0.447602
H      -3.538505   -2.157521   -0.686438
H      -3.795166   -4.655572   -0.791120
H      -2.437034   -5.928974    1.067078
H      -1.048019   -4.982803    0.446899
H      -4.211243   -3.019142    1.644396
