18

C       0.046751    1.499858    0.010356
C      -0.014371   -0.031513    0.002978
C      -1.473442   -0.511901   -0.018979
C       0.807424   -0.640032   -1.178811
O       1.681374   -1.603160   -0.558161
C       1.518413   -1.416961    0.781655
N       2.298524   -2.243288    1.545884
N       0.662173   -0.570982    1.198167
H       1.084098    1.844591    0.058042
H      -0.416983    1.918427   -0.890252
H      -0.480628    1.894972    0.883142
H      -2.005649   -0.118262   -0.892632
H      -1.519838   -1.604942   -0.049822
H      -1.993045   -0.177771    0.883306
H       0.192431   -1.162247   -1.916627
H       1.424790    0.105278   -1.692388
H       3.171689   -2.520103    1.124163
H       2.365687   -1.961064    2.511182
