17

O      -0.151462    0.118543   -0.660776
C      -0.054540    1.179209   -0.142937
O      -1.104362    1.993075    0.326164
C      -0.134823    2.807699    1.042101
C       0.312428    4.260823    1.290368
C       1.400345    3.454772    2.138022
C       0.241573    2.482519    2.494196
C       2.202976    2.547408    1.136833
C       1.000016    2.251944    0.206555
H       0.635136    4.850895    0.430313
H      -0.323870    4.848854    1.954214
H       1.959219    3.974438    2.914559
H      -0.467026    2.894030    3.215214
H       0.495585    1.448928    2.743663
H       3.009361    3.062144    0.610007
H       2.627745    1.684035    1.653852
H       1.094383    2.826964   -0.722043
