19

C       0.043989    1.481920    0.084497
C       1.329908    0.713024    0.004832
O       1.661205    0.140119    1.272235
C       0.462691   -0.691152    1.216533
C       0.788834   -2.167616    0.981628
C      -0.244544   -2.787911    0.032394
O      -0.242769   -2.132335   -1.225929
C      -0.715015   -0.796379   -1.138909
C       0.009145   -0.019234   -0.080342
H      -0.246282    1.950189    1.021665
H      -0.218196    2.040437   -0.810414
H       2.131946    0.891510   -0.702337
H      -0.167155   -0.541623    2.102500
H       1.773832   -2.229225    0.509447
H       0.831572   -2.722224    1.924818
H      -0.004487   -3.835467   -0.168937
H      -1.254210   -2.755286    0.478436
H      -0.582088   -0.350528   -2.129867
H      -1.798119   -0.800518   -0.918929
