19

C      -0.036551    1.526992    0.068226
C      -0.004455    0.028297    0.021564
C      -0.913742   -0.859724    0.825278
C       0.580794   -0.968204    1.008132
C       1.301734   -1.715677   -0.138487
C       0.403070   -2.213106   -1.223969
C       0.708716   -0.727050   -1.163140
C       1.370385   -0.043009   -2.216265
C       1.923785    0.555256   -3.104188
H       0.941804    1.952886   -0.176928
H      -0.759906    1.931947   -0.649733
H      -0.322275    1.876087    1.065580
H      -1.414740   -0.340324    1.637640
H      -1.515100   -1.653682    0.397102
H       1.059908   -0.766102    1.957603
H       2.339628   -2.014635   -0.074242
H       0.917602   -2.717174   -2.035768
H      -0.591223   -2.601262   -1.035729
H       2.413419    1.076558   -3.888427
