18

C      -0.057626    1.434712    0.035113
N      -0.023813   -0.016524    0.119867
C      -1.091601   -0.656200   -0.040461
N      -2.467045   -0.283038   -0.296116
C      -2.891114   -1.678868    0.018678
C      -2.329801   -2.562369   -1.067358
N      -2.133954   -2.204347   -2.447417
C      -1.422252   -2.124159    0.072329
O      -0.795126   -3.003215    0.924371
H       0.789557    1.774623   -0.569379
H      -0.978726    1.843315   -0.404349
H       0.073015    1.867008    1.034809
H      -2.836135    0.434083    0.318114
H      -3.722363   -1.890395    0.678367
H      -2.595871   -3.608726   -0.932782
H      -2.973030   -2.437244   -2.972669
H      -2.038486   -1.193443   -2.512278
H      -0.062429   -3.411159    0.448740
