17

N       0.221381    1.329380   -0.269236
C       0.044958   -0.033903   -0.077096
C      -1.068206   -0.843874    0.011286
N      -0.655808   -2.109268    0.302294
N       0.634088   -2.141320    0.403125
N       1.087756   -0.866478    0.171537
C       2.471216   -0.516718    0.245342
C       3.485369   -1.546146   -0.146332
C       3.261686   -0.352898   -1.039411
H       1.045788    1.560898   -0.809591
H      -0.596013    1.779358   -0.656840
H      -2.108595   -0.593212   -0.116842
H       2.705687    0.149838    1.070057
H       4.394301   -1.593207    0.441096
H       3.097932   -2.502757   -0.470824
H       2.733618   -0.521691   -1.971215
H       4.014534    0.426613   -1.072075
