23

C       1.353720    2.539080   -0.091540
C       1.007041    1.085560   -0.337702
C       2.037317   -0.023896   -0.399351
C       3.428943    0.244561    0.180974
C       3.214160    0.373977    1.688359
C       2.693675   -0.848226    2.409252
C       1.735498    0.255123    2.020404
C       1.061964    1.070815    3.101342
C       1.012175    0.002773    0.721229
H       2.134636    2.661972    0.661810
H       1.704835    3.015796   -1.014128
H       0.474875    3.097208    0.250398
H       0.205474    0.963032   -1.063354
H       1.953633   -0.743450   -1.206367
H       4.113256   -0.577402   -0.060236
H       3.877729    1.155547   -0.233559
H       3.844557    1.058715    2.246746
H       2.656679   -1.789837    1.868855
H       2.937007   -0.946455    3.462350
H       1.726783    1.216675    3.959029
H       0.762795    2.058804    2.735813
H       0.158973    0.568087    3.468096
H       0.183498   -0.700802    0.731215
