18

O       0.013345    1.413844   -0.170496
C       0.014680    0.019419    0.011827
C       0.176561   -0.568285    1.464806
C      -1.094204   -1.437551    1.254488
O      -2.285196   -0.937161    1.902419
C      -2.573658   -0.101276    0.763374
C      -3.444050   -0.760759   -0.341172
N      -2.214128   -0.959328   -1.169873
C      -1.364074   -0.615501   -0.047773
H       0.923861    1.724279   -0.181105
H       0.708228   -0.476111   -0.684763
H       1.101625   -1.119806    1.645169
H       0.034731    0.183979    2.243167
H      -0.992549   -2.522811    1.325555
H      -2.763591    0.940121    1.024001
H      -3.928012   -1.674920    0.020062
H      -4.186454   -0.121144   -0.829444
H      -2.084386   -1.882118   -1.572350
