22

C      -0.253670    1.279116   -0.644024
C       0.143130   -0.181746   -0.551886
C       1.529970   -0.784223   -0.608302
C       2.605556   -0.004167    0.162465
C       3.183254    1.295215   -0.391630
C       1.674080   -0.007612    1.421722
C       0.666112   -0.894954    0.665249
C      -0.008421   -2.090182    1.278101
H      -0.140148    1.657401   -1.666237
H      -1.305803    1.402890   -0.362283
H       0.333662    1.922389    0.013587
H      -0.551676   -0.820962   -1.097677
H       1.753811   -1.559175   -1.335404
H       3.438885   -0.687252    0.361786
H       2.412952    2.039077   -0.607694
H       3.888792    1.741356    0.318928
H       3.729517    1.107277   -1.323104
H       2.126533   -0.512084    2.279397
H       1.301608    0.964871    1.761273
H      -0.772754   -1.788673    2.005764
H      -0.504588   -2.700226    0.515687
H       0.709078   -2.731115    1.804532
