15

N      -0.211163    1.201960    0.340178
C      -0.186139    0.028088   -0.108096
O       0.961224   -0.801418   -0.070038
C       0.728762   -1.947591   -0.884335
C      -0.390562   -3.029539   -0.722090
N      -1.359322   -2.932841    0.356923
C      -1.767390   -1.635487    0.410555
C      -1.255381   -0.877997   -0.621847
C      -0.558525   -1.831732   -1.604235
H       0.698678    1.453522    0.730638
H       1.646582   -2.295473   -1.344121
H      -0.160888   -4.029868   -1.070665
H      -1.892417   -3.730545    0.673341
H      -2.254454   -1.260625    1.303958
H      -0.712993   -1.776893   -2.677475
