13

O       0.315781    1.105598    0.413085
C       0.180257   -0.219917    0.015188
C      -1.295968   -0.755121   -0.200564
N      -0.851122   -1.194666   -1.533779
C       0.344148   -0.489370   -1.480517
N       1.227063   -0.062920   -2.274176
C      -1.784518   -1.815640    0.674875
N      -2.170820   -2.648910    1.375979
H       0.756372    1.572187   -0.308674
H       0.755443   -0.894370    0.658449
H      -2.001993    0.081545   -0.209999
H      -1.442321   -1.351427   -2.338273
H       1.037331   -0.293417   -3.249950
