19

C       0.020718    1.535987    0.023210
C      -0.031865    0.005244   -0.011098
N      -1.381433   -0.525524    0.029206
C      -2.067879   -0.931579    1.144392
C      -3.336157   -1.317188    0.768353
C      -3.435828   -1.146716   -0.642505
N      -4.565047   -1.361660   -1.463692
C      -2.222650   -0.651736   -1.062427
O      -1.779693   -0.369313   -2.328300
H       1.059427    1.881740    0.013058
H      -0.485918    1.961430   -0.848061
H      -0.465003    1.923260    0.923522
H       0.451969   -0.364948   -0.919603
H       0.510915   -0.411826    0.842515
H      -1.592189   -0.926449    2.112164
H      -4.106611   -1.692524    1.424896
H      -5.110611   -2.153509   -1.144621
H      -4.280805   -1.541602   -2.420557
H      -2.102550    0.500612   -2.592812
