11

N      -0.124857   -1.160324   -0.003862
C      -0.056818   -0.006489    0.012235
C       0.001099    1.428659    0.029888
C       0.491180    2.151554    1.262719
C       1.351952    2.155340    0.021080
C       2.581198    1.412657   -0.004881
N       3.581270    0.833405   -0.028145
H      -0.778932    1.910008   -0.549819
H      -0.004542    3.076449    1.530620
H       0.824423    1.542102    2.093087
H       1.374268    3.068276   -0.563947
