23

C      -0.288373    1.531927   -0.059628
C       0.105316    0.050283    0.031663
C       0.778835   -0.468921   -1.213581
C      -0.001986   -1.014391   -2.366530
O       0.163198   -0.526875   -3.672320
C       0.976307   -1.934662   -1.700807
C       2.403261   -1.610042   -2.154492
C       2.244794   -0.158032   -1.596423
C       2.579895    1.032762   -2.489870
H       0.589881    2.168806   -0.204820
H      -0.966108    1.705925   -0.901625
H      -0.790880    1.862377    0.855042
H       0.772055   -0.098872    0.891903
H      -0.790028   -0.551359    0.234629
H      -1.042685   -1.222758   -2.109669
H       0.063296   -1.269013   -4.278374
H       0.660097   -2.859619   -1.229962
H       3.170334   -2.188279   -1.635689
H       2.576631   -1.685345   -3.232760
H       2.820051   -0.082276   -0.666083
H       2.027409    0.984428   -3.429389
H       2.334197    1.979920   -1.997040
H       3.652849    1.051143   -2.715400
