20

C      -0.390874    1.299102    0.054539
N       0.081028   -0.075447    0.080867
C       1.471684   -0.318117   -0.283750
C       1.011226   -0.533478    1.117878
C       1.518789    0.339272    2.248474
C       0.579805    0.298685    3.474352
O       0.448474   -1.004986    3.971427
C       1.089635    1.226227    4.557249
O       1.350311    0.827967    5.666852
H       0.364765    2.057651    0.316491
H      -0.742530    1.524422   -0.957486
H      -1.241412    1.408939    0.735944
H       1.659230   -1.157664   -0.948480
H       2.106558    0.550735   -0.463758
H       0.809330   -1.553080    1.438063
H       2.501477   -0.032236    2.564509
H       1.655551    1.375520    1.921764
H      -0.406876    0.690129    3.165599
H       0.735664   -0.962303    4.897302
H       1.216036    2.291868    4.275101
