12

N      -0.041405    1.355656   -0.086768
C      -0.015411    0.001640   -0.036324
N      -1.169660   -0.670777   -0.019114
C      -1.070146   -1.990038   -0.005070
F      -2.226396   -2.629265    0.009076
N       0.001927   -2.753128    0.000301
C       1.164819   -2.075422   -0.010108
C       1.202554   -0.705990   -0.029187
F       2.353796   -0.015996   -0.034565
H       0.805290    1.868720    0.086235
H      -0.924332    1.811118    0.073591
H       2.085970   -2.651111   -0.001979
