16

N       0.468792   -1.149037    0.798581
C       0.201649   -0.074168    0.473620
C      -0.117074    1.288978    0.007957
O      -0.879574    1.896452    1.029535
C      -1.316844    3.208091    0.763770
O      -0.377836    4.170870    1.121084
C       0.627365    4.449630    0.168289
C       1.435604    3.296638   -0.359307
C       1.151939    1.998474   -0.426168
H      -0.747598    1.166745   -0.894098
H      -1.613418    3.307619   -0.296031
H      -2.180625    3.363726    1.412866
H       0.190408    4.980545   -0.698264
H       1.297854    5.162849    0.658751
H       2.377915    3.614717   -0.803074
H       1.867458    1.337559   -0.908409
