13

N       0.019372    1.077600   -0.741766
C      -0.006766    0.005865   -0.063154
N       1.115316   -0.569007    0.540609
C       1.423373   -1.799183    0.368056
C       0.670935   -2.836530   -0.327661
N      -0.607392   -2.941990   -0.466798
N      -1.463136   -2.010982   -0.005978
C      -1.366526   -0.622071    0.186198
O      -2.348377    0.001569    0.494084
H       0.982229    1.421726   -0.800549
H       2.367752   -2.132646    0.805118
H       1.230055   -3.697354   -0.685097
H      -2.426994   -2.319308   -0.046813
