13

C       0.012677   -1.165028    0.041064
C       0.034909    0.037777    0.028513
C       0.051505    1.457364    0.009143
C       0.267378    2.324762   -1.202362
C       1.180707    2.488144   -0.012919
C       0.414312    3.147207    1.124585
O      -0.674816    2.191308    1.009284
H      -0.007646   -2.226636    0.055674
H       0.713477    1.826080   -2.056117
H      -0.481682    3.076935   -1.435100
H       2.249180    2.331290   -0.059681
H       0.905686    3.050133    2.098739
H       0.076919    4.179604    0.977176
