19

C       0.010654    1.550589   -0.003231
C       0.032660    0.025240   -0.013814
C       0.969311   -0.574297   -1.086957
O       2.281956   -0.138152   -0.620275
C       2.063641   -1.071234    0.458556
C       1.290191   -1.997106   -0.494655
O       0.274212   -2.689809    0.183812
C       0.093063   -2.001691    1.441917
C       0.753022   -0.642236    1.206706
H       1.026662    1.948208    0.058290
H      -0.454051    1.943316   -0.914530
H      -0.561322    1.927915    0.850867
H      -0.982853   -0.369849   -0.122148
H       0.783965   -0.366615   -2.141233
H       2.953531   -1.333971    1.028738
H       1.857316   -2.657519   -1.148462
H      -0.978447   -1.933264    1.653855
H       0.572525   -2.575709    2.248683
H       0.864928   -0.018527    2.093323
