17

C      -0.140275    1.498388    0.039783
C       0.141656    0.035631   -0.004799
O      -0.689557   -0.883362    0.744567
C       0.733835   -0.909803    0.964946
C       1.292902   -1.812506   -0.154552
O       0.875610   -3.147087   -0.171100
C       0.661379   -0.806413   -1.162291
C       0.168939   -0.988398   -2.522581
O       1.387649   -0.267559   -2.248118
H       0.697477    2.052659   -0.393139
H      -1.038414    1.738797   -0.539391
H      -0.297492    1.831373    1.068659
H       1.084330   -0.757014    1.979418
H       2.383853   -1.797347   -0.227415
H      -0.075416   -3.130788   -0.002074
H       0.303345   -1.952741   -3.009100
H      -0.656578   -0.382412   -2.892193
