17

N      -0.149155    1.397310    0.080167
C      -0.144378    0.029597    0.016787
N      -1.087874   -0.753914    0.366466
C      -0.650695   -2.097602   -0.037150
C      -1.363222   -2.620199   -1.264680
C      -0.536620   -2.818670   -2.288829
C       0.902082   -2.499663   -1.954835
C       0.824498   -1.920180   -0.528841
O       0.994840   -0.483540   -0.527610
H       0.758137    1.825434    0.182917
H      -0.864351    1.772827    0.683213
H      -0.746967   -2.785890    0.811208
H      -2.435124   -2.777855   -1.273461
H      -0.831884   -3.179454   -3.268223
H       1.534818   -3.396222   -1.984002
H       1.353259   -1.776418   -2.643359
H       1.580739   -2.336333    0.141255
