16

O       0.067396   -0.100217    0.114712
C       0.015850    1.105022   -0.012790
C      -1.309947    1.844743   -0.206904
C      -1.228309    3.206458   -0.883156
O      -2.043489    3.561781   -1.703716
C      -0.057234    4.050458   -0.518004
C       0.412235    4.168710    0.935103
C       1.181359    3.325539   -0.032797
N       1.134542    1.894605    0.036574
H      -1.993644    1.202751   -0.762762
H      -1.741803    1.976618    0.794951
H       0.070721    4.918591   -1.152885
H       0.815226    5.130199    1.231623
H      -0.162851    3.660064    1.700584
H       2.134629    3.692752   -0.395331
H       1.984602    1.401497    0.267234
