22

C      -0.119119    1.525972   -0.047228
C       0.361919    0.071656   -0.141017
C       0.814363   -0.502283    1.195673
C       2.070472    0.126120    1.775706
C      -0.224172   -0.988195    2.161349
C       0.662144   -2.007065    1.473581
C       0.039134   -2.935511    0.479421
N       0.754341   -4.080253    0.248061
O      -1.027001   -2.725137   -0.075936
H       0.675441    2.207583    0.273356
H      -0.476325    1.874704   -1.021061
H      -0.946313    1.619956    0.664360
H      -0.441978   -0.549818   -0.540764
H       1.194827    0.009035   -0.854968
H       1.925860    1.194454    1.967699
H       2.351870   -0.341356    2.724557
H       2.916627    0.025260    1.085802
H      -0.078601   -0.827843    3.224393
H      -1.256356   -0.991382    1.827344
H       1.461303   -2.442569    2.066669
H       1.698262   -4.189759    0.574712
H       0.429036   -4.689412   -0.484956
