15

C       0.080456    1.469616    0.100493
C      -0.046897   -0.003915   -0.089995
C       0.557033   -0.947344   -1.167155
C       0.023008   -1.875996   -0.045857
O       0.525557   -0.915177    0.953152
C       0.202247   -3.335609    0.156638
O       0.628285   -3.835348    1.165044
C      -1.270309   -0.955653   -0.023253
O      -2.442796   -0.987545    0.121069
H       1.132256    1.768557    0.119079
H      -0.417863    1.995185   -0.719470
H      -0.387881    1.771703    1.041096
H       0.093555   -0.986935   -2.156051
H       1.647735   -0.911264   -1.196986
H      -0.120662   -3.942119   -0.718713
