15

C      -0.218434    1.613363   -0.027894
C      -0.007321    0.093564    0.003471
C       1.186898   -0.383007   -0.905962
C       2.011964   -0.586773    0.374097
O       3.171140   -0.774654    0.587889
C       0.782741   -0.394123    1.275600
C      -1.259905   -0.614292   -0.232200
N      -2.251702   -1.178744   -0.418731
H       0.733220    2.123762    0.151004
H      -0.603808    1.934262   -0.999368
H      -0.926807    1.925378    0.744185
H       0.994263   -1.329497   -1.419130
H       1.567272    0.342413   -1.628985
H       0.877560    0.323448    2.094002
H       0.420791   -1.345265    1.676365
