20

C      -0.364724    1.582719   -0.037250
C      -0.168155    0.072859    0.026381
C       0.275481   -0.599955   -1.300518
C       1.199471   -1.761612   -0.864838
C       1.588246   -1.433686    0.574966
C       2.234098   -0.114808    0.918628
C       2.902148    0.749436   -0.090164
O       3.886820    1.398015    0.178229
N       0.772891   -0.347651    1.091760
H       0.545770    2.097377   -0.361021
H      -1.158615    1.831185   -0.748474
H      -0.647233    1.976743    0.942634
H      -1.118877   -0.379007    0.337071
H      -0.585620   -0.956858   -1.871663
H       0.799812    0.111880   -1.944374
H       0.656682   -2.712270   -0.863535
H       2.061468   -1.890999   -1.525445
H       1.789203   -2.265143    1.246515
H       2.746216   -0.048497    1.875513
H       2.482923    0.764769   -1.114542
