23

C       0.081920    1.523283   -0.121079
C      -0.003913    0.031393   -0.073780
C      -1.064104   -0.762078    0.095577
C      -2.497499   -0.377317    0.290315
C      -0.628059   -2.220072    0.067188
C      -0.890961   -2.943868    1.397078
C      -1.243147   -2.999713   -1.105745
O       0.796694   -2.160523   -0.134113
C       1.231507   -0.814532   -0.229998
H       0.746912    1.905575    0.664143
H       0.501182    1.864451   -1.076465
H      -0.892669    2.000547    0.005209
H      -2.632889    0.706811    0.284696
H      -3.135335   -0.795643   -0.497958
H      -2.888083   -0.755740    1.242907
H      -1.963329   -3.058491    1.585508
H      -0.441244   -3.940920    1.371607
H      -0.448536   -2.387956    2.228461
H      -1.049540   -2.484018   -2.050497
H      -0.798822   -3.997976   -1.161035
H      -2.325382   -3.114600   -0.986580
H       1.729743   -0.643027   -1.199489
H       1.981015   -0.600214    0.550828
