17

O       0.411125    1.107539   -0.639034
C       0.092225   -0.153084   -0.064353
C       0.602331   -0.332167    1.344184
C      -0.332316   -0.789902    2.178471
C      -1.662298   -1.012347    1.501774
O      -2.766592   -0.448722    2.197467
C      -1.410799   -0.453795    0.088404
C      -2.438786    0.281231   -0.659963
O      -2.090155   -1.062258   -1.006505
H       0.118718    1.789567   -0.023889
H       0.532475   -0.883931   -0.752657
H       1.632320   -0.108655    1.600461
H      -0.196643   -1.004374    3.233036
H      -1.906240   -2.078271    1.424193
H      -2.560654    0.477378    2.367747
H      -3.423702    0.405040   -0.214385
H      -2.125463    1.040842   -1.373228
