18

C      -0.357871    1.427080   -0.157004
N      -0.003643    0.020720    0.037541
C       1.313730   -0.501987   -0.356357
C       2.423657    0.344979   -0.862234
O       2.621772    1.509776   -0.590153
C       0.868646   -0.399762    1.099774
C       1.516164    0.533583    2.074428
C       1.029139    0.584513    3.461907
O       2.222728   -0.122840    3.134086
H       0.474328    2.131173   -0.072070
H      -0.796175    1.529131   -1.153921
H      -1.128186    1.679809    0.577626
H       1.273532   -1.484021   -0.823722
H       3.102729   -0.193476   -1.559174
H       0.588149   -1.345634    1.563944
H       2.021102    1.402782    1.664400
H       1.164877    1.495292    4.043028
H       0.184420   -0.036422    3.758524
