18

C      -0.067335    1.580594   -0.029699
C       0.080109    0.072054   -0.067708
C       0.751909   -0.683200   -1.244178
C       2.159876   -0.041070   -1.341194
C       2.382368   -0.577265    0.069154
C       3.632529   -0.679388    0.836211
O       4.709638   -0.342513    0.404365
C       1.314269   -1.619123   -0.109038
N       1.084672   -0.550719    0.871620
H       0.878021    2.099020   -0.204984
H      -0.786545    1.912012   -0.786527
H      -0.440979    1.891816    0.950832
H      -0.876370   -0.403155    0.174650
H       0.203313   -0.976397   -2.137103
H       2.799145   -0.579813   -2.043620
H       2.237022    1.032798   -1.526950
H       3.508816   -1.101677    1.856349
H       1.300245   -2.679672    0.107142
