16

N      -0.128427    1.239434   -0.418368
C      -0.012639   -0.015215    0.083398
O       1.017234   -0.516358    0.494982
C      -1.309096   -0.769456    0.090410
O      -2.535556   -0.145728   -0.405077
C      -2.935023   -1.490524    0.014040
C      -1.634691   -2.185491   -0.493735
C      -1.383358   -2.875210    0.864106
C      -2.010423   -1.524233    1.269409
H       0.686964    1.827490   -0.465420
H      -1.020042    1.579829   -0.738020
H      -3.978909   -1.779438   -0.100070
H      -1.424165   -2.520266   -1.508903
H      -1.977708   -3.768742    1.072528
H      -0.338664   -3.018978    1.140734
H      -2.226094   -1.109405    2.253456
