15

C      -0.128154    1.262058   -0.335153
N      -0.043216   -0.072596    0.226051
C      -1.077278   -1.105312    0.193410
C      -1.021618   -1.899662   -1.070249
O      -0.698484   -1.265383   -2.266485
C       0.011183   -2.168664    0.024079
C       0.985346   -0.990464    0.015884
O       2.165160   -0.844129   -0.149733
H       0.886796    1.663529   -0.385712
H      -0.558734    1.247772   -1.342977
H      -0.728412    1.912585    0.308072
H      -1.910782   -1.085983    0.884139
H      -1.777558   -2.683829   -1.154829
H      -0.044646   -1.799539   -2.730355
H       0.131719   -3.128986    0.505111
