19

C       0.041999    1.495882    0.094297
C       0.101323   -0.011562    0.166326
O       0.546821   -0.548985   -1.058095
C       1.050289   -1.834116   -0.740652
C       1.574793   -1.683791    0.717121
O       1.063487   -0.424461    1.132240
C       1.114836   -2.811122    1.617877
C       0.571311   -2.568749    2.957119
O      -0.290252   -2.885845    1.855282
H       1.025355    1.890321   -0.172256
H      -0.686959    1.803542   -0.659596
H      -0.259965    1.903785    1.062041
H      -0.876117   -0.448505    0.432211
H       0.255830   -2.592076   -0.787444
H       1.833327   -2.087402   -1.458525
H       2.670895   -1.633697    0.747283
H       1.592709   -3.772752    1.415448
H       0.652193   -3.341885    3.719489
H       0.500883   -1.544695    3.312589
