15

C      -0.049215    1.549478   -0.047290
C       0.024680    0.049650   -0.050098
C       0.127039   -0.697047    1.254281
C       1.408057   -0.421711    2.018889
O       2.304574    0.296218    1.659350
C       1.500213   -1.133449    3.314988
N       1.558164   -1.694057    4.324611
N       0.000778   -0.701288   -1.084676
O      -0.090595    0.025465   -2.272150
H       0.960002    1.972892   -0.013259
H      -0.545690    1.912002   -0.947520
H      -0.585030    1.909396    0.836233
H      -0.710353   -0.453549    1.924998
H       0.069706   -1.776736    1.071788
H      -0.136164   -0.671363   -2.935668
