21

C      -0.240255    1.346226    0.121357
O       0.158905   -0.000335   -0.072714
C       0.738872   -0.581208    1.075351
C      -0.278577   -1.245321    2.078282
O      -1.643729   -1.060552    1.794616
C       0.375745   -2.601222    1.799481
C       0.350599   -2.900695    0.326335
C       1.388840   -1.940956    0.836467
C       2.866787   -2.157685    0.676571
H       0.620845    1.983349    0.373194
H      -0.671179    1.692811   -0.821221
H      -0.991375    1.437381    0.916354
H       1.415358    0.132554    1.565645
H      -0.122434   -0.917032    3.108983
H      -1.719217   -1.007365    0.834136
H       0.554866   -3.375018    2.536905
H       0.735274   -3.878367    0.052836
H      -0.464087   -2.561944   -0.306483
H       3.216581   -1.788893   -0.294887
H       3.436579   -1.636808    1.454760
H       3.117711   -3.221807    0.734526
