15

N       0.198900    1.441442    0.039297
C       0.017812    0.044021   -0.016889
C      -1.081409   -0.779312   -0.039226
O      -2.386778   -0.376711   -0.014327
C      -0.625553   -2.131012   -0.109259
O      -1.418112   -3.267812   -0.086004
C       0.750218   -2.093918   -0.107091
O       1.673642   -3.087685   -0.137759
N       1.138987   -0.794211   -0.063839
H      -0.223999    1.842801    0.870393
H      -0.215583    1.911364   -0.759522
H      -2.916095   -1.162999    0.161997
H      -1.683594   -3.477985   -0.989061
H       1.194900   -3.915234   -0.012280
H       2.086906   -0.462459   -0.028590
