17

C      -0.184462    1.498903    0.024821
C       0.002139   -0.014299   -0.000202
C       0.882193   -0.539355   -1.168304
C       1.107212   -2.033653   -0.870486
C       2.454018   -1.840987   -0.285674
C       2.189652   -0.314373   -0.298761
C       1.171779   -0.524775    0.865653
N       1.284853   -2.025939    0.627199
H       0.765439    2.025946   -0.119069
H      -0.865410    1.822840   -0.769223
H      -0.606003    1.828490    0.980345
H      -0.953164   -0.529940    0.148697
H       0.770697   -0.208696   -2.199819
H       0.644941   -2.905985   -1.314866
H       3.339297   -2.464311   -0.253710
H       2.890129    0.505621   -0.426170
H       1.318413   -0.244524    1.908527
