13

O      -0.412647    0.282472    0.493053
C       0.247597    0.857431   -0.328999
C       1.164969    2.029780    0.002486
C       1.244820    3.051291   -1.115498
C       2.518988    3.706925   -1.477154
O       1.988413    2.652223   -2.273528
C       0.008440    3.760542   -1.408115
N      -0.984301    4.315717   -1.611634
H       0.254410    0.547559   -1.396418
H       0.835379    2.484076    0.940847
H       2.171862    1.621027    0.154809
H       2.501000    4.693454   -1.934161
H       3.406731    3.463038   -0.896352
