17

C      -0.189124    1.359806    0.235462
N      -0.175246   -0.085859    0.140742
C       0.553523   -0.723011    0.969734
N       1.350125   -0.217927    1.958283
N       0.616179   -2.153651    0.819620
C       0.972415   -3.059342    1.814810
N       1.355160   -2.726490    2.983224
C       0.261518   -2.699884   -0.434600
O       0.220575   -3.884062   -0.655058
H       0.811697    1.801873    0.110507
H      -0.833394    1.766304   -0.547565
H      -0.587636    1.715428    1.200525
H       1.143655    0.728014    2.236321
H       1.598268   -0.869423    2.701587
H       0.873375   -4.079880    1.444172
H       1.558030   -3.553279    3.539148
H       0.037108   -1.909976   -1.158690
