25

C       0.237390    1.614939   -0.047314
C       0.194441    0.083413   -0.009775
C       0.546797   -0.525986    1.361982
C      -0.491851   -0.189073    2.444914
C       0.780226   -2.037249    1.261952
C      -0.397052   -2.891472    0.823501
C       2.160546   -2.494137    0.811725
C       1.729584   -2.663061    2.249932
O       2.277944   -1.841657    3.242620
H       1.221967    1.990099    0.254814
H       0.036223    1.987403   -1.056953
H      -0.505451    2.062738    0.619998
H      -0.802779   -0.255560   -0.319742
H       0.895623   -0.310734   -0.756274
H       1.497381   -0.086577    1.685073
H      -1.490253   -0.553509    2.178066
H      -0.206446   -0.638691    3.399844
H      -0.569307    0.891399    2.596973
H      -0.718043   -2.640536   -0.193147
H      -0.130932   -3.953307    0.827195
H      -1.258052   -2.766857    1.488388
H       2.249744   -3.374709    0.183327
H       2.896732   -1.720491    0.615772
H       1.492985   -3.672857    2.588340
H       3.200936   -2.089771    3.357270
