12

N      -0.061052    1.292637    0.007352
C       0.001534    0.028507    0.000580
C      -1.178346   -0.941988    0.002381
N      -0.618015   -2.299187   -0.007770
C       0.651642   -2.140697   -0.014188
N       1.110468   -0.829711   -0.010092
C       1.601389   -3.217886   -0.025131
N       2.401902   -4.050923   -0.033974
H       0.860453    1.731499    0.004332
H      -1.808883   -0.801310    0.886599
H      -1.818982   -0.792312   -0.873056
H       2.076986   -0.548403   -0.014283
