18

O      -1.155559    0.603198   -0.035811
C       0.055898   -0.119062   -0.195389
C       1.046981    0.596398   -1.136317
N       0.548142    0.843296   -2.479750
C       0.423007   -0.331175   -3.329310
C       0.259917    0.080896   -4.785024
O      -0.362790   -0.543881   -5.602038
C       0.687582   -0.450926    1.152447
O       1.819254   -0.835986    1.291952
H      -0.948166    1.460181    0.355163
H      -0.240877   -1.077572   -0.643182
H       1.314376    1.561707   -0.683892
H       1.968641    0.008691   -1.186044
H      -0.348738    1.315217   -2.411743
H       1.367278   -0.894030   -3.274287
H      -0.385082   -1.035064   -3.075535
H       0.789032    1.027617   -5.035888
H      -0.001546   -0.302517    2.016429
