13

C       0.078194    1.443393   -0.129368
C       0.038158   -0.002157   -0.014161
C      -0.005012   -1.204899    0.081594
C      -0.059703   -2.638231    0.193707
O      -1.081934   -3.271563    0.367963
C       1.229740   -3.298827    0.082515
C       2.290506   -3.873577   -0.013514
C       3.559135   -4.558325   -0.088838
O       4.095313   -4.875007   -1.123634
H       1.100663    1.803355   -0.281312
H      -0.532355    1.778903   -0.974570
H      -0.320454    1.913534    0.776035
H       4.011792   -4.773392    0.899528
