19

C       0.591778    1.252069    0.214853
O       0.578105   -0.160246    0.089287
C       0.390758   -0.608678   -1.221755
O       1.488561   -0.270437   -2.064802
C       2.531153   -1.211944   -1.845722
C       1.848387   -2.466551   -1.297742
O       2.386131   -3.496695   -0.991402
C       0.355393   -2.140714   -1.207575
C      -0.368944   -2.838681   -0.063235
H       1.405390    1.697834   -0.368178
H      -0.361318    1.687894   -0.119535
H       0.734219    1.476393    1.273665
H      -0.487732   -0.129946   -1.674230
H       3.041295   -1.413902   -2.792618
H       3.273386   -0.850147   -1.121518
H      -0.070122   -2.449847   -2.173427
H      -0.024971   -2.456123    0.899092
H      -1.450170   -2.687463   -0.127204
H      -0.163004   -3.911491   -0.103513
