12

N      -0.082558    1.338635   -0.128873
C      -0.042974    0.072173    0.013490
N       1.130370   -0.703761    0.081080
C       1.234759   -2.067932    0.233466
O       2.269023   -2.668237    0.283820
O       0.038031   -2.740420    0.329860
C      -1.143104   -2.060792    0.273269
C      -1.244712   -0.739432    0.125721
H       0.850845    1.748565   -0.191128
H       2.023769   -0.236786    0.013174
H      -1.980637   -2.740227    0.364353
H      -2.204830   -0.246785    0.086488
