14

N       1.099373   -1.047483   -0.523207
C       0.657419    0.007598   -0.349700
C       0.115481    1.334517   -0.165172
C      -0.106498    1.809642    1.235325
N       0.990240    2.363484    0.438364
C      -0.767957    1.809521   -1.290880
C      -2.196547    1.475148   -1.321554
O      -1.743059    2.782720   -0.954079
H      -0.934659    2.491189    1.396240
H       0.118324    1.121083    2.043993
H       1.878056    1.949246    0.713416
H      -0.244924    1.989454   -2.229637
H      -2.712086    1.410120   -2.277086
H      -2.625166    0.887662   -0.511743
