19

C       0.628166    0.208283   -0.849057
O      -0.022330    0.228782    0.404696
C       0.579490   -0.568269    1.390788
C      -0.104782   -0.246592    2.723766
C       0.425863   -2.069467    1.093023
O      -0.402480   -2.502173    0.326675
C       1.341772   -3.028521    1.808902
C       2.809985   -2.912041    1.678803
O       2.151859   -2.536090    2.879510
H       0.574885   -0.778603   -1.324751
H       0.114585    0.933526   -1.484209
H       1.685057    0.506898   -0.757783
H       1.654153   -0.333272    1.476437
H      -0.015985    0.824638    2.919595
H      -1.166459   -0.502244    2.667764
H       0.361733   -0.799088    3.541434
H       0.916592   -4.020482    1.953124
H       3.410077   -3.818543    1.731173
H       3.238857   -2.096150    1.099480
