22

C      -0.087489    1.520114   -0.265500
N       0.045640    0.113569    0.079877
C       0.078026   -0.249441    1.391219
O       0.033374    0.507868    2.341561
C       0.055750   -0.879642   -0.996293
C       1.265856   -1.873697   -0.995169
C       0.667292   -3.275743   -1.265854
C      -0.726699   -3.001629   -1.862049
C      -1.204744   -1.775472   -1.076079
H       0.748237    1.848917   -0.894129
H      -1.023134    1.708432   -0.805736
H      -0.088792    2.092443    0.661936
H       0.155867   -1.346107    1.517199
H       0.106031   -0.293992   -1.918043
H       1.977628   -1.589791   -1.775804
H       1.811288   -1.834712   -0.050234
H       1.298492   -3.885312   -1.917544
H       0.557111   -3.824763   -0.323738
H      -0.640931   -2.754779   -2.927929
H      -1.404241   -3.855870   -1.780644
H      -1.508262   -2.074586   -0.066210
H      -2.054125   -1.258525   -1.531546
