18

C      -0.022332    1.525917    0.020515
C       0.002574    0.013289   -0.019919
C       0.745615   -0.728253   -1.176380
C       0.404735   -2.099622   -0.580206
O       0.981918   -1.959247    0.772328
C       0.724869   -0.669888    1.149266
N       1.027130   -0.137853    2.253292
C      -1.106458   -1.992295   -0.428170
C      -1.342747   -0.726874   -0.074150
H       0.992058    1.933164   -0.007323
H      -0.583352    1.931059   -0.827465
H      -0.486144    1.873302    0.947691
H       0.291972   -0.546533   -2.151752
H       1.821682   -0.532287   -1.205625
H       0.825085   -3.000454   -1.020231
H       1.496498   -0.810807    2.862216
H      -1.802622   -2.817211   -0.490404
H      -2.280849   -0.275025    0.221487
