21

C      -0.194564    1.416043    0.101190
C      -0.331181   -0.029225   -0.342607
O      -1.228559   -0.687981    0.547092
C      -1.436175   -2.034454    0.263914
C      -2.719273   -2.574875    0.845073
O      -3.548469   -1.690035    1.532922
C      -2.557290   -2.460397   -0.665555
C      -3.373258   -1.455470   -1.439591
O      -2.250965   -3.653542   -1.342607
H       0.499711    1.949200   -0.554818
H      -1.162679    1.924099    0.065593
H       0.184871    1.470091    1.125503
H      -0.711081   -0.092661   -1.371627
H       0.643932   -0.539441   -0.319622
H      -0.544124   -2.660848    0.274413
H      -2.702084   -3.577448    1.267067
H      -3.027934   -0.891077    1.687719
H      -3.498956   -0.531211   -0.873614
H      -2.894694   -1.227968   -2.397192
H      -4.373715   -1.854008   -1.646582
H      -3.058887   -4.177736   -1.394788
