18

O      -0.161140    1.330558    0.033040
N       0.004806   -0.074475    0.022370
C      -1.116150   -0.659835    0.035317
C      -2.584360   -0.295950   -0.021196
C      -2.765063   -1.645379   -0.794113
C      -1.484840   -2.121991   -0.028198
C      -1.920109   -2.547483    1.394964
O      -3.087012   -1.848357    1.802922
C      -3.156063   -0.486184    1.404409
H       0.750412    1.638394   -0.008108
H      -2.884098    0.653405   -0.464649
H      -3.686414   -2.201382   -0.612414
H      -2.583173   -1.531719   -1.863521
H      -0.793259   -2.836160   -0.477256
H      -2.189138   -3.608970    1.415039
H      -1.089085   -2.387078    2.098811
H      -2.619909    0.165989    2.110024
H      -4.218966   -0.223855    1.432654
