19

O      -0.366437    0.824389    0.377389
C       0.211608    1.762244   -0.136248
N       1.539883    1.825806   -0.398891
C       2.466595    0.748229   -0.090013
C       3.209556    0.249281   -1.362419
C       4.474638    1.084670   -1.413413
N       4.220283    2.528616   -1.181409
C       4.711865    1.673025   -0.072454
C       3.602692    1.224434    0.859965
H      -0.310185    2.688671   -0.450462
H       1.941006    2.646694   -0.830044
H       1.861488   -0.037356    0.361729
H       3.481636   -0.807094   -1.253802
H       2.582070    0.345385   -2.252452
H       5.291871    0.802410   -2.068810
H       4.993178    3.071771   -1.556405
H       5.712586    1.845841    0.309356
H       3.252415    2.008123    1.536924
H       3.963448    0.388038    1.469921
