20

C      -0.083811    1.481608    0.149915
C       0.040311   -0.027250   -0.046234
C       0.761969   -0.417854   -1.327559
O       1.191281    0.406188   -2.105109
C       0.920149   -1.909086   -1.587858
C       1.652915   -2.197057   -2.887625
O       1.737210   -3.618426   -3.017264
C       2.368284   -4.075966   -4.114822
N       2.482915   -5.318435   -4.305825
H       0.901498    1.953181    0.182806
H      -0.634491    1.938559   -0.676079
H      -0.607643    1.706904    1.082770
H       0.572374   -0.495704    0.793438
H      -0.946708   -0.510179   -0.057431
H       1.451623   -2.369675   -0.745594
H      -0.070128   -2.381545   -1.600938
H       1.111660   -1.764944   -3.737237
H       2.654617   -1.752276   -2.870139
H       2.742097   -3.278011   -4.771965
H       2.982996   -5.489772   -5.175652
