13

C      -0.037234    1.506573    0.042457
C      -0.006454    0.013919   -0.043596
N      -0.029422   -0.591882   -1.175266
C       0.001025   -1.980666   -1.199938
N      -0.019183   -2.624352   -2.285384
O       0.056286   -2.689686    0.018050
N       0.081343   -2.045243    1.239889
C       0.050969   -0.774508    1.184491
F       0.073805   -0.119725    2.335121
H       0.850573    1.878061    0.565862
H      -0.079272    1.928613   -0.961187
H      -0.905048    1.838590    0.622815
H       0.009261   -3.628771   -2.108475
