19

C      -0.062055    1.508553    0.047522
C      -0.073955    0.018303   -0.024279
C      -0.100406   -0.794106   -1.080085
C       0.039011   -2.220342   -0.561615
O      -0.496602   -2.131248    0.744994
C       0.043920   -0.885716    1.205517
C       1.521977   -1.182505    1.530932
C       2.213043   -1.721786    0.256481
O       1.397744   -2.628961   -0.491062
H       0.844851    1.877747    0.543183
H      -0.109799    1.959660   -0.946872
H      -0.910075    1.882360    0.635009
H      -0.096910   -0.523056   -2.127719
H      -0.479870   -3.003632   -1.115484
H      -0.524456   -0.550517    2.077361
H       2.058931   -0.296003    1.888272
H       1.540300   -1.932796    2.327019
H       2.506628   -0.877497   -0.381436
H       3.119682   -2.277028    0.510867
