19

C      -0.079644    1.392286    0.023069
N       0.122403   -0.045078   -0.020941
C       0.660760   -0.611298   -1.134310
N       1.247157   -0.011970   -2.105188
C       1.741754   -1.065608   -2.956088
C       2.751366   -2.026740   -2.345622
C       1.285417   -2.374630   -2.341656
C       0.690915   -3.580568   -3.003831
O       0.582494   -1.976716   -1.160329
H       0.845245    1.885201   -0.281915
H      -0.880024    1.734251   -0.646933
H      -0.320748    1.686379    1.047168
H      -0.546839   -0.625931    0.459520
H       1.760229   -0.867985   -4.022210
H       3.373631   -2.593283   -3.030918
H       3.228119   -1.741447   -1.413419
H       1.217405   -3.790043   -3.938936
H       0.773981   -4.466552   -2.364820
H      -0.367459   -3.419841   -3.232547
