18

C       0.017956    1.573964   -0.008275
C       0.049471    0.065008   -0.095035
C       0.650682   -0.749568   -1.223178
C      -0.072551   -1.838914   -1.956979
C       1.956279   -0.096771   -1.678826
O       2.463084   -0.030597   -0.316329
C       1.312102   -0.729647    0.160340
C       1.469100   -1.736746    1.158487
N       1.566874   -2.562469    1.963937
H       0.997016    2.002992   -0.231261
H      -0.714907    1.991009   -0.706636
H      -0.260619    1.891061    1.001204
H      -0.827117   -0.435941    0.311961
H      -0.653372   -1.427971   -2.791088
H       0.625626   -2.577704   -2.363888
H      -0.769695   -2.362665   -1.296288
H       2.580683   -0.765061   -2.281651
H       1.900554    0.890005   -2.150089
