19

C      -0.010046   -1.146754   -0.718997
C      -0.023616   -0.043508   -0.242440
C      -0.014623    1.296153    0.338561
C       1.367107    1.934084    0.348475
C       1.915834    2.621661   -0.894613
C       1.526821    3.419844    0.307948
C       0.499249    4.538310    0.460710
C       1.600820    5.210370    1.308881
O       2.496191    4.091015    1.114407
H      -0.005102   -2.120948   -1.140836
H      -0.709419    1.936341   -0.221153
H      -0.407188    1.249602    1.363336
H       2.104049    1.411072    0.951429
H       2.975126    2.514041   -1.101140
H       1.282504    2.673734   -1.775849
H       0.230886    5.059069   -0.460245
H      -0.410088    4.272753    1.004239
H       2.016241    6.137146    0.897539
H       1.363553    5.360075    2.368068
