18

C       0.049615    1.526129    0.168383
C       0.048104    0.007958   -0.065107
C      -1.346362   -0.555529   -0.053380
C      -2.079147   -1.039581    1.182600
O      -3.304754   -0.471652    1.524777
C      -1.917341   -1.984977    0.024822
N      -2.846686   -1.673178   -1.063847
C      -2.413772   -0.332075   -1.123898
O      -2.765764    0.590404   -1.800749
H       1.066440    1.926803    0.119345
H      -0.558437    2.029631   -0.587967
H      -0.367027    1.772272    1.150348
H       0.519516   -0.217474   -1.029375
H       0.652983   -0.493710    0.700167
H      -1.407742   -1.229554    2.023820
H      -3.786040   -1.099017    2.075550
H      -1.386736   -2.928990    0.045682
H      -3.834681   -1.896892   -1.011162
