18

C      -0.336648    1.605842   -0.135348
N      -0.266662    0.159477   -0.183241
C       0.845259   -0.508333   -0.619397
O       1.849860    0.061050   -1.006788
C       0.708164   -2.007991   -0.545748
N       1.499616   -2.796732   -1.504440
C       1.826651   -2.898703   -0.083461
C       3.176499   -2.390684    0.358507
H      -0.500619    1.965799    0.886843
H       0.618808    1.985946   -0.498676
H      -1.140042    1.989348   -0.774426
H      -1.065837   -0.372479    0.117249
H      -0.296693   -2.363485   -0.318710
H       0.958140   -3.598271   -1.816330
H       1.484819   -3.795324    0.435248
H       3.430110   -1.477540   -0.179600
H       3.175688   -2.183432    1.434199
H       3.942648   -3.148274    0.161487
