21

C      -0.554452    1.397774    0.018331
C       0.086694    0.007266   -0.038171
C       1.047879   -0.101727   -1.243831
O       1.665618   -1.377496   -1.370037
C       2.190476   -1.914115   -0.179858
C       3.683793   -1.734179    0.271587
C       3.152814   -1.593864    1.741513
C       1.819238   -1.243799    1.112330
C       0.889944   -0.303057    1.212244
H       0.206577    2.177766    0.135610
H      -1.120784    1.614175   -0.893248
H      -1.241694    1.474238    0.866859
H      -0.707824   -0.738680   -0.180310
H       0.508673    0.046586   -2.184838
H       1.804690    0.694753   -1.157940
H       1.948784   -2.985169   -0.187333
H       4.375496   -2.550042    0.051448
H       4.093522   -0.788976   -0.091201
H       3.152231   -2.555960    2.264433
H       3.619259   -0.844051    2.383635
H       0.774081    0.322765    2.094091
