17

N      -0.018743    1.381086    0.124804
C       0.033061   -0.004551    0.032790
N      -1.136443   -0.640768    0.136296
C      -1.129878   -1.976276    0.097507
C       0.019516   -2.735764   -0.063759
C       1.235762   -2.059807   -0.164944
C       1.269385   -0.675087   -0.103796
C       2.568765    0.099019   -0.163140
O       3.723378   -0.702338    0.009480
H       0.640202    1.898341   -0.437104
H      -0.964016    1.730169    0.046138
H      -2.101484   -2.455532    0.193591
H      -0.030954   -3.817219   -0.105617
H       2.169021   -2.599164   -0.286124
H       2.692230    0.570473   -1.148429
H       2.535264    0.918990    0.572693
H       3.698032   -1.058376    0.904119
