18

C       0.043950    1.508084    0.079397
C      -0.017691    0.015794   -0.003793
C      -0.084468   -0.737637   -1.106500
C      -0.056123   -2.200521   -0.795902
O      -0.883944   -3.075203   -1.503126
C       1.217511   -2.707130   -0.153954
C       0.045010   -2.278912    0.710380
C       0.018432   -0.851806    1.246621
H       0.981440    1.845824    0.539778
H      -0.031793    1.970804   -0.908387
H      -0.767331    1.902841    0.704852
H      -0.126298   -0.361149   -2.123367
H      -0.414363   -3.351971   -2.296941
H       1.392495   -3.777634   -0.202834
H       2.108955   -2.088629   -0.197411
H      -0.483957   -3.061547    1.240076
H       0.894365   -0.624244    1.869336
H      -0.861469   -0.667489    1.878435
