15

O      -0.359196    1.444744   -0.323557
C       0.055633    0.125096    0.005026
C      -1.211592   -0.773334    0.161199
C      -1.407519   -1.615780   -1.149896
C      -0.057992   -1.466037   -1.772028
C       0.734267   -0.557093   -1.151371
O       1.886604   -0.422139   -1.751298
N       1.772913   -1.416632   -2.929472
N       0.648783   -1.937399   -2.844703
H       0.426810    1.980150   -0.478344
H       0.664263    0.127830    0.918568
H      -1.062764   -1.449428    1.006712
H      -2.071530   -0.140189    0.386465
H      -1.678606   -2.650419   -0.922703
H      -2.199326   -1.204467   -1.785003
