15

O      -0.158322    1.310777   -0.073327
N       0.007146   -0.089271   -0.109033
C      -1.115789   -0.671276    0.031748
C      -2.475576   -0.032792    0.236534
O      -3.348941   -1.073589    0.673435
C      -2.721048   -2.319325    0.512077
C      -2.313138   -2.729983   -0.867602
C      -1.279471   -2.137467    0.098613
H       0.748320    1.625506   -0.150566
H      -2.437849    0.756052    0.995077
H      -2.840920    0.422076   -0.694779
H      -3.046298   -3.046335    1.246711
H      -2.216190   -3.790827   -1.070650
H      -2.641680   -2.131883   -1.710534
H      -0.461509   -2.750361    0.452465
