17

O       0.106966    1.400681    0.613786
C       0.048111    0.095719    0.122808
C      -0.534946   -1.000551    0.989957
C      -1.307208   -0.470506   -0.199078
N      -2.525865    0.265191   -0.053576
C      -2.860763    1.262529    0.806954
C      -4.178077    1.581836    0.552466
C      -4.557657    0.712887   -0.488902
N      -3.559951   -0.086490   -0.854564
H       0.825553    1.444805    1.253579
H       0.852750   -0.169010   -0.563022
H      -0.127309   -2.004479    0.943944
H      -0.890223   -0.689919    1.966964
H      -1.382062   -1.101481   -1.074559
H      -2.137638    1.673779    1.488481
H      -4.768562    2.338178    1.043472
H      -5.511830    0.634206   -0.989162
