16

N      -0.071543    1.380607    0.409844
C       0.015484    0.165237   -0.175965
O       0.962677   -0.201417   -0.845781
C      -1.209788   -0.767818   -0.008364
C      -0.723653   -2.228026    0.115062
C       0.033540   -2.726221   -1.107010
O       0.878311   -3.579458   -1.058927
C      -2.113081   -0.390853    1.071829
C      -2.842971   -0.076807    1.975036
H       0.714323    2.005319    0.333479
H      -0.829632    1.602654    1.033094
H      -1.755850   -0.675187   -0.959789
H      -0.099958   -2.369501    1.000859
H      -1.603973   -2.874225    0.228828
H      -0.308695   -2.298260   -2.075034
H      -3.499115    0.185485    2.768369
