15

N      -0.123882    1.178064   -0.327469
C      -0.080847   -0.043827   -0.057873
C      -1.083429   -1.095391    0.238953
C      -0.664839   -2.409365   -0.480849
C       0.273910   -2.365096   -1.668309
C       1.409401   -1.446270   -1.177530
O       2.361069   -1.068329   -1.789847
N       1.061816   -0.982639    0.167607
C       0.073870   -1.955388    0.724138
H       0.814700    1.565822   -0.440391
H      -2.081036   -0.969440    0.637470
H      -1.393762   -3.206338   -0.389307
H       0.661878   -3.360942   -1.906734
H      -0.146099   -1.944552   -2.586795
H       0.247123   -2.448410    1.669721
