15

O       0.847141    1.397708    1.697530
C       0.383840    1.693270    0.614889
N       1.057561    1.580984   -0.559170
C       2.399327    1.021664   -0.620568
C       3.441598    1.952547    0.011633
C       4.840985    1.407623   -0.103975
O       5.138061    0.361018   -0.623757
C       5.892376    2.272703    0.478869
N       6.703998    2.961840    0.929667
H      -0.640682    2.090274    0.477918
H       0.589629    1.835378   -1.413328
H       2.415626    0.061438   -0.097094
H       2.645405    0.828582   -1.666408
H       3.421276    2.951478   -0.444527
H       3.208371    2.103001    1.073026
