19

C      -3.210069   -3.356666   -0.780958
N      -1.972369   -2.633085   -0.580788
C      -0.979350   -2.991109   -1.264119
O       0.217106   -2.380048   -1.109420
C       1.234562   -2.750908   -2.024189
C       1.095778   -2.093250   -3.376782
C       2.577611   -2.917448   -1.385980
C       1.817410   -4.134347   -1.877647
H      -4.000306   -2.658708   -1.080745
H      -3.147956   -4.154119   -1.540268
H      -3.530081   -3.809293    0.164803
H      -0.980578   -3.806452   -2.002778
H       1.065372   -1.004640   -3.267303
H       1.940603   -2.352704   -4.020687
H       0.176708   -2.409444   -3.882211
H       3.450401   -2.588619   -1.938672
H       2.627592   -2.763832   -0.314645
H       1.385435   -4.784232   -1.125359
H       2.165399   -4.642340   -2.770491
