18

C      -0.146410    1.496960   -0.006009
C       0.068720    0.005523    0.020745
C       1.115751   -0.694145   -0.892152
C       1.088502   -1.816507    0.185489
C       0.750154   -0.708649    1.220757
N      -0.118670   -2.605721   -0.004895
C      -1.305757   -1.973470   -0.279013
O      -2.342530   -2.522824   -0.547076
O      -1.227286   -0.608878   -0.206384
H       0.799355    2.019560    0.162789
H      -0.552132    1.807680   -0.973261
H      -0.855968    1.794479    0.771715
H       0.813937   -0.953039   -1.909141
H       2.060797   -0.147068   -0.896433
H       1.948415   -2.468621    0.333603
H       1.639520   -0.167565    1.549933
H       0.124364   -0.983153    2.071839
H      -0.082807   -3.590025   -0.208368
