12

C       0.050111    1.404014   -0.018995
O      -0.306183    0.038297   -0.263351
C       0.454358   -0.627701   -1.128908
C       0.864401   -1.918634   -1.185689
N       1.567611   -2.107651   -2.373443
C       1.555525   -0.954966   -2.947920
O       0.888554    0.014452   -2.256358
H       1.080402    1.476188    0.346937
H      -0.059201    2.006336   -0.925104
H      -0.639981    1.759036    0.746623
H       0.702325   -2.708695   -0.472703
H       2.005535   -0.655195   -3.880524
