21

C       0.061215    1.534968    0.023317
C      -0.019714    0.025360    0.001030
C       0.457403   -0.720950   -1.275777
C      -0.696087   -1.742800   -1.128909
C      -0.438696   -2.807206   -0.030334
C      -0.771307   -1.752601    1.055169
O      -1.550023   -2.142433    2.150425
C       0.379357   -0.742709    1.294740
C      -1.357999   -0.811322   -0.049188
H       1.105163    1.871351    0.063460
H      -0.392993    1.972490   -0.873017
H      -0.453931    1.949733    0.896975
H       0.308481   -0.093739   -2.160949
H       1.483889   -1.104913   -1.290860
H      -1.192790   -2.077748   -2.039189
H      -1.226195   -3.566797   -0.040393
H       0.540765   -3.298212   -0.002829
H      -1.007765   -2.697326    2.722993
H       1.403734   -1.124376    1.373078
H       0.147886   -0.141500    2.180083
H      -2.369006   -0.411622   -0.063326
