15

N      -0.173618    1.430592   -0.092484
C      -0.092591    0.071271    0.063322
N      -1.104931   -0.692336   -0.079699
C      -0.984778   -2.075855   -0.038160
C       0.064109   -2.981626   -0.118936
N      -0.494651   -4.211504   -0.020346
N      -1.847955   -4.191700    0.108908
C      -2.134383   -2.903106    0.093970
O      -3.399216   -2.453566    0.201009
H       0.507307    1.996205    0.388125
H      -1.108864    1.810978   -0.118389
H       0.922538   -0.287999    0.270982
H       1.125902   -2.851908   -0.255640
H      -0.032645   -5.101478   -0.068427
H      -3.332765   -1.490278    0.130175
