21

C      -0.024840    1.189538   -0.005829
O      -0.508316   -0.057961    0.448862
C       0.347900   -0.668524    1.364742
C       0.140734   -2.134607    1.594348
C       1.376833   -1.644910    0.874992
C       1.730264   -2.005430   -0.573793
C       3.046146   -2.629322   -0.021152
O       4.246818   -2.475299   -0.731670
C       2.829938   -1.860780    1.316735
H       0.945434    1.097148   -0.514065
H      -0.760134    1.582688   -0.711840
H       0.087998    1.904569    0.823871
H       0.604134   -0.043363    2.223739
H       0.233192   -2.514865    2.606894
H      -0.626392   -2.612361    0.993110
H       1.050980   -2.657718   -1.127113
H       1.939671   -1.120005   -1.186343
H       2.930601   -3.706019    0.129371
H       4.380537   -1.534646   -0.889856
H       3.402485   -0.924613    1.333430
H       3.015939   -2.402523    2.247773
