14

C       0.025465    1.460064   -0.000250
C       0.034046    0.010409    0.055351
C       0.042053   -1.195980    0.101318
C       0.033660   -2.632251    0.160692
O      -0.944210   -3.295922    0.440196
C       1.380684   -3.329038   -0.160175
C       1.357156   -4.835510   -0.094243
O       2.352289   -2.669942   -0.437750
H       1.011663    1.854986   -0.263673
H      -0.696139    1.813297   -0.744969
H      -0.266356    1.881834    0.967741
H       0.609090   -5.229925   -0.789180
H       2.345566   -5.227503   -0.334302
H       1.046729   -5.162693    0.903095
