18

O       0.043708   -0.049654   -0.190363
C      -0.024417    1.154546   -0.105396
C      -1.337251    1.923567   -0.092858
N      -1.310717    3.047325   -1.035707
C      -0.280647    4.022289   -0.688817
C       1.164633    3.470017   -0.619372
C       1.899510    3.804201    0.694577
O       1.549560    2.513010    1.246663
C       1.236408    2.016182   -0.082319
H      -2.151656    1.236571   -0.335731
H      -1.517330    2.325646    0.912803
H      -1.175019    2.702030   -1.981610
H      -0.328581    4.848856   -1.404584
H      -0.556299    4.435922    0.289385
H       1.709238    3.650266   -1.548898
H       2.987779    3.910997    0.593653
H       1.506231    4.631991    1.294877
H       2.067960    1.422359   -0.483469
