18

N       0.388471    1.157461   -0.169581
C       0.169663   -0.057373    0.049715
O       1.002735   -1.057679    0.502457
C      -0.079690   -2.039964    0.436544
C      -1.052726   -0.947037   -0.074868
C      -2.266878   -0.609563    0.828759
C      -3.450873   -1.072820    0.015652
C      -3.113883   -1.360083   -1.239399
C      -1.642762   -1.141580   -1.495639
H       1.357201    1.409461    0.032899
H       0.164109   -2.839853   -0.267699
H      -0.290987   -2.452058    1.426873
H      -2.194925   -1.093246    1.810072
H      -2.314941    0.471264    1.016400
H      -4.454433   -1.112937    0.423712
H      -3.798266   -1.672277   -2.020045
H      -1.476908   -0.243102   -2.104683
H      -1.164265   -1.971814   -2.028418
