17

C       0.072861    1.571896   -0.000500
C       0.005757    0.042952    0.009329
C       0.735822   -0.596599   -1.211394
C       1.971662   -1.216375   -0.599136
C       1.904353   -1.161498    0.730727
N       0.736994   -0.519951    1.168916
C       0.337371   -0.447420    2.469839
O       0.954216   -0.898034    3.413507
H       1.113715    1.907204   -0.048559
H      -0.458881    1.967360   -0.871938
H      -0.383187    1.997268    0.898410
H      -1.039170   -0.278127    0.057147
H       0.113135   -1.349817   -1.710570
H       0.968514    0.164591   -1.965013
H       2.775042   -1.661565   -1.167540
H       2.584733   -1.529904    1.483584
H      -0.633977    0.074410    2.573594
