23

C       0.029869    1.597435   -0.089801
C       0.030647    0.070622    0.044848
C       0.607351   -0.588705   -1.237838
C       1.175613   -2.005498   -0.991729
C       1.682760   -2.096501    0.446456
C       2.277869   -0.765976    0.948704
C       0.793787   -0.462905    1.279376
C       0.450489    0.200537    2.594554
O       0.534921   -1.905946    1.318679
H       1.051920    1.994042   -0.124786
H      -0.468881    1.899472   -1.017028
H      -0.491601    2.084360    0.739237
H      -1.003013   -0.270807    0.186207
H      -0.153336   -0.603259   -2.025027
H       1.412310    0.052288   -1.617259
H       0.401915   -2.771145   -1.114861
H       1.973310   -2.228822   -1.710298
H       2.213447   -3.027961    0.663342
H       2.870342   -0.898184    1.856024
H       2.809455   -0.122072    0.244791
H       0.810144    1.233576    2.621409
H      -0.633151    0.210784    2.756048
H       0.913060   -0.350074    3.418072
