14

O      -0.029422   -0.070611    0.000569
C      -0.061616    1.130344   -0.067976
C      -1.231847    2.065185    0.136364
C      -0.618067    3.274097    0.080180
C       0.602945    3.367389   -0.800857
C       1.185371    4.312394    0.283319
C       1.296004    3.116237    1.152846
C       1.162870    2.097079   -0.047305
N       0.017736    4.029173    1.150462
H      -2.003508    1.772099    0.837559
H       0.599324    3.449272   -1.882550
H       1.721348    5.250740    0.257838
H       1.778854    2.976882    2.111053
H       2.126742    1.672239   -0.335958
