17

C      -0.057917    1.529359    0.038956
C       0.019579    0.020205    0.066838
C      -1.057987   -0.721610   -0.697530
C      -1.079218   -2.241232   -0.519109
O      -1.586388   -2.959320   -1.355558
C      -0.536026   -2.782533    0.745681
C       0.238816   -2.051709    1.556636
C       0.662439   -0.676388    1.203209
O       1.333646   -0.524220   -0.068279
H       0.775840    1.966908    0.593240
H      -0.010674    1.894383   -0.992761
H      -0.997063    1.881693    0.477719
H      -2.042759   -0.356877   -0.373569
H      -0.988977   -0.507741   -1.768845
H      -0.794229   -3.812957    0.966883
H       0.607651   -2.464314    2.491731
H       1.099686   -0.080805    2.002308
