14

N       0.166815    1.428251   -0.128877
C       0.008424    0.042136   -0.063215
C      -1.111026   -0.784420   -0.094707
O      -2.386905   -0.341318   -0.146170
N      -0.772790   -2.082875   -0.080456
C       0.560322   -2.110032   -0.033723
N       1.060722   -0.828399   -0.032071
C       1.442974   -3.260535    0.023736
O       1.102311   -4.421894    0.009813
H       0.476397    1.839710    0.746945
H      -0.705855    1.868982   -0.394606
H      -2.950695   -1.123663   -0.188705
H       2.033059   -0.564180   -0.056236
H       2.521126   -2.971741    0.081250
