23

C      -0.160895    1.491419    0.313585
C      -0.039079   -0.034787    0.177593
C       0.646500   -0.636813    1.410501
C      -1.415988   -0.631765   -0.111468
C      -1.636169   -2.158613   -0.205433
C      -2.735970   -1.924927    0.847699
C      -2.660253   -2.653357    2.176537
O      -3.473412   -2.012733    3.140234
O      -2.337858   -0.537302    1.011341
H       0.816179    1.949346    0.495624
H      -0.581459    1.941278   -0.591903
H      -0.817050    1.748663    1.151469
H       0.574593   -0.255429   -0.708686
H       0.812551   -1.713710    1.311322
H       1.623549   -0.169957    1.568804
H       0.042537   -0.467566    2.306722
H      -1.845806   -0.108374   -0.978567
H      -1.959297   -2.538414   -1.175139
H      -0.801921   -2.762465    0.158484
H      -3.759689   -1.978788    0.453267
H      -3.031962   -3.678850    2.067935
H      -1.609920   -2.707139    2.505924
H      -3.219129   -1.081881    3.122165
