16

C       0.019627    1.567632    0.008326
C       1.344480    0.812453   -0.007947
C       0.047126    0.076107    0.002361
C      -0.528885   -0.955275    0.969773
C      -1.733576   -1.252210    0.015317
O      -1.532748   -2.695695    0.007790
C      -0.188415   -2.132959   -0.003664
C      -0.548414   -0.947927   -0.961023
H      -0.258684    2.080462    0.923832
H      -0.277090    2.087403   -0.897434
H       1.926013    0.831616   -0.924492
H       1.944424    0.824665    0.896774
H      -0.530853   -0.982205    2.059312
H      -2.749549   -0.858703    0.027090
H       0.667862   -2.806642   -0.014888
H      -0.572422   -0.966563   -2.050473
