15

O      -0.680910    0.715290   -0.638344
C       0.340201    0.775254   -0.003797
C       1.223926    2.015265    0.066276
O       2.567246    1.667679    0.351482
C       3.299094    1.899142   -0.842037
O       2.699124    3.016858   -1.448211
C       1.306999    2.879629   -1.245484
C       0.619743    2.260128   -2.471997
O       1.205475    1.557427   -3.252238
H       0.708078   -0.068722    0.617008
H       0.844357    2.619907    0.902038
H       4.331619    2.141855   -0.581120
H       3.251441    1.024226   -1.506626
H       0.885795    3.877055   -1.081008
H      -0.443726    2.539803   -2.607347
