23

C      -0.574980    1.359445   -0.067196
C       0.167527    0.039431   -0.045336
O       1.455036    0.120279   -0.709949
C       2.099877   -0.519259    0.388459
C       3.108708   -1.600921    0.171322
C       3.527396   -0.239086    0.715160
C       0.834625   -0.504441    1.261975
C       0.904669    0.476271    2.432065
C       0.319591   -1.868169    1.714042
H       0.008685    2.161178    0.391388
H      -0.785300    1.644288   -1.103133
H      -1.531971    1.273864    0.459197
H      -0.450186   -0.735093   -0.523571
H       3.122669   -2.452188    0.844707
H       3.369418   -1.829634   -0.856587
H       4.062571    0.424966    0.044473
H       3.824330   -0.166462    1.756734
H       1.322278    1.440433    2.131460
H      -0.086886    0.650792    2.864090
H       1.542906    0.074394    3.226931
H       0.956233   -2.292305    2.498868
H      -0.693658   -1.784908    2.124080
H       0.292238   -2.579079    0.882958
