25

C      -0.016231    1.548425    0.155179
C       0.159526    0.032577    0.031963
C       0.699239   -0.610777    1.313252
C       0.882043   -2.117488    1.186422
O       1.378170   -2.615042    2.413518
C       1.502826   -4.032798    2.513096
C       2.704217   -4.565448    1.729585
C       1.628447   -4.296427    4.016179
O       2.732819   -3.609085    4.572634
H       0.936029    2.039284    0.384240
H      -0.399925    1.982144   -0.773397
H      -0.718761    1.801703    0.956808
H      -0.802614   -0.427073   -0.230188
H       0.838514   -0.189686   -0.801992
H       1.664827   -0.162764    1.579388
H       0.020831   -0.409019    2.151478
H      -0.079587   -2.602338    0.946104
H       1.572832   -2.343276    0.358819
H       0.576415   -4.506675    2.147508
H       3.628741   -4.165008    2.152659
H       2.740115   -5.657907    1.792978
H       2.651594   -4.296854    0.671176
H       0.687126   -4.001456    4.505166
H       1.787369   -5.364072    4.200158
H       2.638166   -2.694068    4.281157
