17

O       0.128054    1.060168   -0.616436
C       0.056826   -0.230871   -0.039648
C      -1.401196   -0.629348    0.158890
N      -2.195803   -0.524812   -1.110978
C      -2.725213   -1.909077   -0.929178
C      -1.784446   -2.122618    0.278581
O      -0.960193   -3.020692   -0.525954
C      -1.830725   -2.929569   -1.609975
N      -1.822785   -3.517126   -2.713230
H      -0.348856    0.992380   -1.453690
H       0.559910   -0.982396   -0.662298
H       0.577419   -0.182746    0.922519
H      -1.846411   -0.049453    0.976493
H      -2.928156    0.173047   -1.062475
H      -3.804382   -2.048451   -0.955128
H      -2.028572   -2.561420    1.243997
H      -1.018918   -4.141102   -2.804261
