17

C       0.366866    1.632225   -0.074194
C       0.114895    0.130843    0.083784
C       0.661790   -0.766039   -1.094515
O       0.940480   -0.175895   -2.335015
C       1.843057   -1.235795   -0.186535
C       1.109717   -0.593112    0.972768
N       1.168317   -0.654965    2.235881
O       2.231540   -1.480037    2.652209
H       1.425494    1.854271   -0.253812
H      -0.213161    2.033528   -0.910774
H       0.078882    2.163761    0.836550
H      -0.936201   -0.041667    0.333460
H      -0.024728   -1.588489   -1.308018
H       1.569872    0.539897   -2.199595
H       2.043437   -2.307077   -0.113330
H       2.786196   -0.728104   -0.423851
H       2.142842   -1.455265    3.611041
