16

O      -0.093146    1.354327    0.070970
N       0.049034   -0.041078    0.134441
C      -1.072201   -0.618893    0.054539
C      -2.516871   -0.186057   -0.167780
C      -2.805501   -1.656842   -0.499398
C      -4.010253   -2.427756   -0.775002
O      -3.117866   -2.034029   -1.837296
C      -1.423861   -2.114422    0.031036
O      -0.721716   -3.024053   -0.753457
H       0.821529    1.654634    0.114978
H      -3.012421    0.188238    0.733747
H      -2.682196    0.519828   -0.985301
H      -4.026615   -3.494475   -0.556966
H      -4.981601   -1.936346   -0.788174
H      -1.474132   -2.517882    1.050177
H      -1.022812   -2.892535   -1.662944
