14

C      -0.056609    1.514045    0.038164
C       0.004031    0.010442    0.004020
C       0.095509   -0.715482   -1.187048
N       0.151172   -2.043151   -1.246038
C       0.113855   -2.666211   -0.069788
O       0.169676   -4.005553   -0.118980
N       0.027722   -2.105822    1.137509
C      -0.025933   -0.773248    1.154407
H       0.837290    1.964626   -0.406986
H      -0.921084    1.896095   -0.515754
H      -0.134261    1.878572    1.066205
H       0.125218   -0.196337   -2.144412
H       0.133235   -4.308836    0.798286
H      -0.096491   -0.308981    2.136867
