18

C      -0.003368    1.443105   -0.150222
C      -0.062943   -0.033238    0.023321
N      -1.101738   -0.778087   -0.107455
C      -0.513959   -2.098474    0.002521
C      -0.605823   -3.542539    0.576903
C       0.894550   -3.333279    0.085383
C       0.307746   -2.702043   -1.192517
C       0.772670   -1.939406    0.778441
O       1.164547   -0.622282    0.337264
H       0.683295    1.698002   -0.964271
H      -0.997312    1.825048   -0.381184
H       0.378676    1.919758    0.757722
H      -0.764931   -3.637365    1.654084
H      -1.179254   -4.279697    0.011990
H       1.698834   -4.063270    0.167555
H      -0.235418   -3.368447   -1.865126
H       0.948027   -2.005891   -1.734866
H       0.747006   -1.944170    1.872522
