18

C      -0.011867    1.635942   -0.188999
C      -0.048297    0.119050    0.076245
C      -1.428558   -0.468274    0.066011
C      -2.186953   -0.879792    1.142797
O      -1.935307   -0.927351    2.477933
N      -3.399855   -1.310556    0.712638
C      -3.466153   -1.202252   -0.675500
C      -2.267353   -0.682379   -1.080926
O      -1.948034   -0.391900   -2.380447
H       1.015690    2.014650   -0.204667
H      -0.477809    1.871278   -1.151080
H      -0.568190    2.178200    0.581592
H       0.586440   -0.388922   -0.666101
H       0.440855   -0.091489    1.037894
H      -1.048525   -0.586941    2.630267
H      -4.115431   -1.675681    1.314604
H      -4.342342   -1.490223   -1.228221
H      -0.992934   -0.300654   -2.444446
