20

C       0.699708    1.131030   -0.366710
C       0.324784   -0.222692    0.179014
O       1.381954   -1.070414    0.650285
C       0.396355   -0.615461    1.599897
C       0.891674    0.304239    2.692360
C      -0.539205   -1.718775    2.060642
O       0.040771   -2.525288    3.084458
C       0.915075   -3.475409    2.677933
N       1.522412   -4.168868    3.539054
H       1.418986    1.647338    0.270738
H       1.144748    1.021933   -1.361105
H      -0.192862    1.757886   -0.467729
H      -0.408384   -0.753997   -0.433890
H       0.067855    0.905662    3.092249
H       1.303863   -0.286646    3.514620
H       1.670135    0.973697    2.325729
H      -1.443755   -1.293688    2.505980
H      -0.831065   -2.338956    1.204338
H       1.006319   -3.547194    1.587895
H       2.122479   -4.846236    3.072830
