22

C      -0.178671    1.806581   -0.120104
C      -0.370717    0.286280   -0.170512
C       0.614587   -0.460811   -1.076962
C       0.465001   -0.055257   -2.547556
C       2.110158   -0.459668   -0.614086
C       2.172206   -1.979017   -0.919315
O       2.900131   -2.835547   -0.074563
C       0.622026   -2.015574   -0.908888
H       0.840286    2.067129    0.187014
H      -0.362417    2.275190   -1.091619
H      -0.867347    2.261592    0.598556
H      -0.277855   -0.115638    0.847037
H      -1.395807    0.056768   -0.493561
H       0.697163    1.003497   -2.700715
H       1.135961   -0.631108   -3.193094
H      -0.559269   -0.229252   -2.897636
H       2.813670    0.197275   -1.132504
H       2.192931   -0.278460    0.464300
H       2.567539   -2.165833   -1.921404
H       2.578211   -2.708125    0.824153
H       0.247074   -2.310903    0.078267
H       0.115774   -2.617985   -1.668247
