21

C      -0.134449    1.622525   -0.030915
C      -0.015752    0.106793    0.004229
C       1.103201   -0.606171   -0.793620
O       2.322566   -0.083191   -0.240364
C       2.098449   -0.223659    1.195816
C       2.440524    1.043164    1.964356
C       0.646961   -0.728245    1.167156
C       0.836539   -1.854773    0.101015
O      -0.345484   -2.582024   -0.135158
H       0.839712    2.104971   -0.130551
H      -0.743268    1.927252   -0.889438
H      -0.624672    2.012879    0.867704
H      -0.975262   -0.360127   -0.219815
H       1.170362   -0.628164   -1.882145
H       2.761770   -1.020815    1.561663
H       1.753884    1.865944    1.767235
H       2.426716    0.834441    3.039634
H       3.451756    1.367457    1.699101
H       0.148827   -0.916896    2.117866
H       1.699844   -2.517444    0.246327
H      -0.227956   -3.084551   -0.947768
