18

C      -0.026677    1.519747   -0.036651
C      -0.015431    0.016104    0.056756
C      -1.280769   -0.759047   -0.304469
O      -1.072122   -2.084386    0.158981
C      -0.304398   -2.002790    1.358368
C       0.618163   -0.812623    1.151677
N       1.237649   -0.684623   -0.184616
C       1.363214   -0.237216    2.295697
O       1.158503   -0.539694    3.446981
H       0.938565    1.936218    0.257121
H      -0.223637    1.833293   -1.068084
H      -0.806196    1.949997    0.600331
H      -2.151405   -0.288479    0.180879
H      -1.469388   -0.806876   -1.382726
H      -0.932855   -1.832914    2.243727
H       0.219863   -2.955182    1.480814
H       1.075935   -1.546599   -0.705286
H       2.140440    0.502517    2.008516
