18

C      -0.201788    1.619262    0.058210
C       0.005248    0.093255    0.023412
C       0.751632   -0.448014    1.205476
C       2.078694   -0.758292    1.313799
N       3.148773   -0.640947    0.434541
O       2.390262   -1.197298    2.548080
C       1.224250   -1.179601    3.298032
C       0.213807   -0.726673    2.516998
O      -1.080637   -0.573688    2.910595
H       0.760576    2.139132    0.072166
H      -0.768560    1.963785   -0.813159
H      -0.747030    1.921017    0.958763
H      -0.974633   -0.401693   -0.055829
H       0.528998   -0.178403   -0.902196
H       2.863162   -0.674086   -0.535039
H       3.867356   -1.331369    0.615278
H       1.303059   -1.508128    4.317431
H      -1.596391   -0.271933    2.157131
