19

C      -0.043934    1.500033   -0.055814
C       0.052880   -0.001294   -0.038901
C       0.697452   -0.930763   -1.135437
C       0.192902   -1.903236   -0.050344
C      -0.043706   -3.264550    0.579167
C      -0.668884   -2.929305    1.718744
C      -0.776844   -1.383679    1.716692
C       0.582054   -0.922502    1.106655
C      -1.083622   -1.039856    0.227012
H       0.948445    1.963184   -0.098425
H      -0.611834    1.853259   -0.924064
H      -0.546811    1.868255    0.845493
H       0.192951   -0.963244   -2.107144
H       1.781839   -0.851337   -1.268049
H       0.223570   -4.241179    0.203213
H      -1.034197   -3.584239    2.498146
H      -1.259673   -0.897332    2.566093
H       1.564364   -0.886390    1.586287
H      -2.030116   -1.139644   -0.311943
