16

C      -0.210039   -1.216800    0.176404
C      -0.081131   -0.023928    0.099847
C       0.037324    1.404574   -0.017824
O       0.594514    2.120244    1.099242
C       1.349326    2.087958   -0.112059
C       2.648000    1.363921   -0.103753
C       3.588145    1.531795   -1.275143
C       3.929862    2.148429    0.053592
H      -0.322460   -2.270263    0.251718
H      -0.822869    1.896997   -0.471699
H       1.357513    3.038801   -0.651429
H       2.608434    0.384920    0.360601
H       4.142409    0.661095   -1.605687
H       3.283850    2.194296   -2.079138
H       3.854072    3.226622    0.148522
H       4.722918    1.705007    0.644630
