21

O       0.255108    1.459849   -0.021897
C       0.147654    0.071217   -0.237707
C      -1.270646   -0.483416   -0.001301
C      -2.224488   -0.058520   -1.120642
O      -2.241896    1.367559   -1.204745
C      -1.270060   -2.020179    0.112829
C      -0.765639   -2.540882    1.471138
C      -0.637764   -4.046898    1.477180
O      -1.191961   -4.786739    2.247905
H      -0.474007    1.862377   -0.512376
H       0.466704   -0.211820   -1.258617
H       0.855785   -0.400943    0.452567
H      -1.640702   -0.050067    0.937011
H      -1.887705   -0.497956   -2.073269
H      -3.235960   -0.440439   -0.916670
H      -2.717685    1.626621   -1.998956
H      -2.286383   -2.401049   -0.047491
H      -0.656332   -2.443803   -0.694886
H       0.231309   -2.128581    1.679536
H      -1.432610   -2.242179    2.284809
H       0.030636   -4.449923    0.678664
