17

C       0.062121    1.574158   -0.090325
C       0.013637    0.044497   -0.016272
C       0.765159   -0.504840    1.220126
C       2.172349   -0.116830    1.242095
N       3.284541    0.196761    1.243269
C      -1.437496   -0.498880    0.029862
O      -2.150984   -0.087589    1.181381
C      -2.166449   -0.152215   -1.206212
N      -2.736461    0.150318   -2.164680
H       1.096323    1.921352   -0.147766
H      -0.468122    1.941039   -0.973493
H      -0.385779    2.029936    0.799991
H       0.480286   -0.370730   -0.917144
H       0.278070   -0.145074    2.132521
H       0.709461   -1.599513    1.243419
H      -1.400993   -1.592868    0.092020
H      -2.386696    0.842027    1.084390
