18

N      -0.037344    1.206298   -0.592532
C      -0.012660    0.065597   -0.046786
C      -1.277694   -0.724721    0.213724
C      -1.004602   -2.063842    0.876794
C       0.041972   -2.089323    2.039690
C       0.259468   -3.592316    1.720975
C       0.198592   -2.902877    0.332148
C       1.105996   -1.803241    0.946221
O       1.157861   -0.521528    0.340309
H       0.912809    1.573166   -0.680174
H      -1.941538   -0.111568    0.832862
H      -1.797179   -0.861414   -0.740963
H      -1.922010   -2.630266    1.062518
H      -0.041473   -1.617453    3.019320
H       1.217394   -4.028686    2.016746
H      -0.574774   -4.255068    1.960223
H       0.295131   -3.365923   -0.650484
H       2.141698   -2.066652    1.166719
