17

O      -0.022785    1.386003    0.462571
C       0.066042    0.030462    0.100710
C       1.150026   -0.432757   -0.837314
C       1.172540   -0.835141    0.631658
C      -1.335851   -0.512597    0.003109
C      -2.199352   -0.107553   -1.206687
O      -2.303383   -1.517249   -1.608965
C      -1.510760   -1.922715   -0.571149
O      -1.140265   -3.025810   -0.321030
H       0.865601    1.749770    0.530761
H       0.935739   -1.199888   -1.573639
H       1.866038    0.311931   -1.171044
H       1.907969   -0.363741    1.276331
H       0.948315   -1.868039    0.873443
H      -1.844874   -0.390305    0.963456
H      -3.185972    0.304909   -0.992396
H      -1.688789    0.474244   -1.975467
