17

C      -0.194365    1.616002   -0.028767
C      -0.051979    0.109286   -0.076903
C       0.886408   -0.578790   -1.072790
C       2.101472   -0.226822   -0.163911
C       2.597500   -1.684285   -0.100027
C       3.348554   -2.113042    1.069924
N       3.969430   -2.470602    1.976867
C       1.059782   -1.741836   -0.054099
N       0.981417   -0.505802    0.876236
H       0.763263    2.127217   -0.164622
H      -0.874357    1.960591   -0.814938
H      -0.609320    1.925650    0.935543
H      -1.027522   -0.376786    0.048736
H       0.859236   -0.640036   -2.166203
H       2.700131    0.681835   -0.128016
H       3.056233   -2.065845   -1.016067
H       0.412982   -2.604306    0.107537
