18

C       0.055762    1.407127   -0.141347
C       0.001447   -0.080236   -0.003633
O       0.538088   -0.910657   -1.082843
C       0.060155   -1.874771   -0.090745
C       0.210818   -3.335134   -0.371478
C       0.519963   -1.018985    1.136841
C      -0.872777   -1.096624    1.797498
C      -1.204159   -1.034332    0.291340
H       1.091759    1.745322   -0.241564
H      -0.499805    1.730398   -1.027099
H      -0.382970    1.888287    0.738414
H       1.266122   -3.593054   -0.503866
H      -0.189763   -3.926629    0.457769
H      -0.327965   -3.607575   -1.284277
H       1.513736   -1.008308    1.587182
H      -1.118398   -2.028082    2.315235
H      -1.176952   -0.237659    2.402188
H      -2.168706   -1.041153   -0.218668
