17

N       0.286983    1.151152   -0.359358
C      -0.030876   -0.017518    0.009408
N      -1.333644   -0.446403    0.236431
C      -2.511421    0.276491    0.116712
O      -2.638213    1.419870   -0.215896
O      -3.529525   -0.563365    0.467498
C      -4.825758   -0.003994    0.373718
C      -5.664679   -0.363890   -0.814178
C      -5.947279   -0.972749    0.547101
H       1.298791    1.215067   -0.456932
H       0.669851   -0.841044    0.197247
H      -1.453519   -1.400748    0.535103
H      -4.888583    0.995005    0.786575
H      -6.338789    0.386938   -1.209947
H      -5.211842   -1.009127   -1.558120
H      -5.678945   -2.013507    0.688196
H      -6.821780   -0.650373    1.100451
