21

C      -0.115947    1.515241   -0.162578
C      -0.040299    0.007907    0.038902
C      -0.522881   -0.518644    1.390594
C       0.947095   -0.482794    1.077297
C       1.738605   -1.768917    0.947999
O       0.977119   -2.866907    0.493318
C       0.880433   -2.985417   -0.910889
C       0.018822   -1.969034   -1.608161
C      -0.352859   -0.753366   -1.202153
H       0.617135    1.855228   -0.903042
H      -1.109469    1.815131   -0.516184
H       0.079218    2.050422    0.771483
H      -0.930961    0.193982    2.100320
H      -0.992854   -1.494849    1.389622
H       1.523593    0.304625    1.559786
H       2.616923   -1.616851    0.298893
H       2.111315   -2.051716    1.940565
H       1.892544   -2.983190   -1.357795
H       0.466708   -3.984862   -1.092409
H      -0.339797   -2.302417   -2.581167
H      -0.995449   -0.198325   -1.885232
