16

C      -0.044822    1.542335    0.053359
C       0.032157    0.016176    0.016581
N       0.725926   -0.528505    1.176775
N       2.035815   -0.761936    1.169221
C       2.288552   -1.170087    2.410029
C       1.085597   -1.162275    3.144883
N       0.104568   -0.742076    2.324640
C       0.864220   -1.521981    4.494195
C       0.710987   -1.833651    5.646038
H       0.957199    1.979467    0.061785
H      -0.575110    1.907678   -0.830866
H      -0.582067    1.878220    0.943956
H      -0.965198   -0.428278    0.010053
H       0.581652   -0.332491   -0.859555
H       3.280803   -1.451837    2.721990
H       0.566903   -2.107415    6.661785
