18

C       0.073166    1.543892    0.003976
C      -0.085396    0.062386    0.108062
C      -1.367341   -0.780564   -0.011690
C      -0.713848   -1.811667    0.996425
C      -1.393954   -1.823340    2.362498
O      -0.471210   -3.117172    0.524451
C       0.552435   -0.943342    0.981075
O       0.971657   -0.778028   -0.375688
H       1.088215    1.839289    0.282436
H      -0.110898    1.882678   -1.021949
H      -0.637009    2.059506    0.658722
H      -2.268412   -0.303403    0.383086
H      -1.550862   -1.169642   -1.015334
H      -2.393418   -2.269514    2.291548
H      -0.804908   -2.412707    3.072275
H      -1.511330   -0.811553    2.762990
H      -1.302359   -3.603460    0.546997
H       1.310109   -0.851773    1.753163
