18

O      -0.023486    0.057817   -0.116786
C       0.004621    1.252449    0.001501
N      -0.997242    2.207021    0.078705
C      -0.091109    3.360961    0.046830
C       1.097765    2.340099    0.057362
C       1.517349    2.821341   -1.369374
C       0.351361    3.826318   -1.348103
C      -0.531349    4.266145   -2.477356
C       0.402005    5.252134   -1.813794
H      -1.952232    2.131907   -0.246700
H      -0.273549    4.109727    0.819476
H       1.851883    2.281093    0.838403
H       2.500609    3.298017   -1.384292
H       1.491577    2.047606   -2.141030
H      -0.285128    3.920276   -3.476109
H      -1.596777    4.364567   -2.292434
H      -0.031641    6.013889   -1.173072
H       1.279936    5.578477   -2.362237
