19

C      -0.015359    1.465343    0.027370
C       0.013649   -0.035945    0.020878
C       0.577556   -0.975109   -1.103408
C       0.022360   -1.939329    0.000267
O      -0.064503   -3.312937   -0.001769
C       0.687118   -0.993852    1.057039
C      -1.182290   -1.005196    0.073227
C      -2.495349   -1.031926    0.693143
O      -2.317734   -0.996778   -0.750428
H       0.991248    1.882906   -0.077624
H      -0.625811    1.842639   -0.799705
H      -0.440721    1.847255    0.961827
H       0.050243   -0.967801   -2.059232
H       1.664682   -0.960221   -1.228744
H       0.818858   -3.680284   -0.111382
H       1.780516   -0.981985    1.062781
H       0.271261   -1.005921    2.067885
H      -2.897221   -1.966995    1.079320
H      -2.923600   -0.127277    1.122485
