18

C      -0.040765    1.481706    0.028094
C       0.113056   -0.013479   -0.001304
C       0.459369   -0.748843   -1.315695
C       0.534009   -2.184267   -0.828767
C       0.685893   -2.198374    0.685932
C      -0.562790   -1.577504    1.269423
C       0.712067   -0.772314    1.204373
N      -1.172068   -0.842365    0.119839
C      -0.804510   -1.555048   -1.141185
H       0.935284    1.972310   -0.064650
H      -0.676540    1.819448   -0.795919
H      -0.500608    1.802811    0.967623
H       0.933808   -0.353482   -2.205671
H       0.947762   -2.958161   -1.461789
H       1.215658   -2.983038    1.209833
H      -1.145740   -1.955920    2.100406
H       1.354481   -0.392555    1.989579
H      -1.541535   -1.919149   -1.846724
