12

N      -0.049420    1.328632    0.008215
C       0.093637   -0.013623    0.000256
O       1.136942   -0.633065   -0.012682
C      -1.273871   -0.732171    0.009656
O      -2.316757   -0.108421    0.022936
C      -1.211193   -2.167293    0.001623
C      -1.218294   -3.380630   -0.004628
C      -1.213904   -4.736254   -0.011734
C      -1.212699   -5.944117   -0.018035
H       0.764359    1.919498    0.003915
H      -0.976225    1.722919    0.019399
H      -1.206233   -7.006610   -0.023631
