21

C      -0.769067    1.359295   -0.346801
O      -0.840718   -0.024761   -0.597103
C      -0.700311   -0.807548    0.569200
C      -0.824539   -2.298355    0.203205
C       0.267984   -2.717191   -0.777259
O      -0.660617   -3.055980    1.392700
C      -2.211520   -2.556553   -0.380627
C      -2.850619   -3.869795   -0.279150
O      -3.229093   -2.799313    0.604987
H      -0.890530    1.872618   -1.303736
H      -1.564116    1.690381    0.339327
H       0.201069    1.643643    0.089583
H       0.278551   -0.639160    1.045172
H      -1.479727   -0.550165    1.306381
H       1.249214   -2.582605   -0.312539
H       0.156667   -3.770856   -1.045912
H       0.225927   -2.105728   -1.681359
H      -1.519618   -3.028127    1.839496
H      -2.510095   -1.878512   -1.176955
H      -3.611498   -4.158386   -1.001397
H      -2.312084   -4.685247    0.197527
