15

C       0.099730    1.449883    0.036721
C      -0.080909   -0.024055    0.009810
C      -1.187656   -0.808271   -0.192961
C      -0.700245   -2.147223   -0.097495
C       0.646930   -2.065004    0.152657
O       1.058681   -0.775792    0.224391
N       1.269713   -3.259239    0.273762
C       0.276306   -4.114914    0.092685
N      -0.940780   -3.503327   -0.136741
H       0.807130    1.782079   -0.731956
H      -0.857951    1.943786   -0.142347
H       0.486559    1.790083    1.004298
H      -2.184857   -0.442731   -0.379166
H       0.370733   -5.189611    0.114301
H      -1.814590   -3.974476   -0.293920
