18

C      -0.122214    1.493734   -0.008637
C      -0.024091   -0.032398    0.014510
C      -1.396298   -0.594584   -0.317498
O      -2.328192   -0.534279    0.443865
C       1.248433   -0.701836   -0.604156
N       2.030531   -0.108965    0.552362
C       0.780849   -0.704802    1.179027
C       0.978515   -1.954923    0.289216
O      -0.142018   -2.771999    0.080593
H       0.839645    1.943392    0.236151
H      -0.435778    1.845807   -0.998310
H      -0.877193    1.821174    0.711702
H      -1.524023   -0.968831   -1.358361
H       1.616118   -0.650129   -1.631277
H       2.833769   -0.710996    0.762623
H       0.583618   -0.652509    2.249556
H       1.877058   -2.541292    0.526325
H       0.045139   -3.379936   -0.642720
