19

C      -0.035589    1.580816    0.173861
C      -0.035730    0.068831   -0.058741
N      -1.373170   -0.495673   -0.071608
N      -2.026727   -0.752898    1.093548
C      -3.220873   -1.191154    0.713966
C      -3.379003   -1.222418   -0.690940
C      -4.553179   -1.657422   -1.512776
C      -2.155898   -0.758337   -1.142814
O      -1.664114   -0.534950   -2.386097
H       0.991404    1.956840    0.215222
H      -0.559771    2.100145   -0.633789
H      -0.531871    1.816973    1.118558
H       0.432274   -0.179344   -1.014762
H       0.515799   -0.441851    0.734912
H      -3.946745   -1.478100    1.462651
H      -4.669924   -1.045956   -2.417179
H      -4.486064   -2.704587   -1.835467
H      -5.483019   -1.555886   -0.945565
H      -2.309972   -0.846133   -3.028344
