16

C      -0.048480    1.580224    0.213985
C       0.051424    0.093078    0.088769
N      -0.789347   -0.862658    0.836974
C       0.691442   -0.930057    0.947355
C       1.218558   -1.679707   -0.318600
O       0.147267   -2.035189   -1.154630
C       0.566688   -0.672791   -1.202199
C       1.072714   -0.104545   -2.467894
O       1.398812   -0.755326   -3.429297
H       0.852164    2.076036   -0.164708
H      -0.905714    1.970303   -0.346663
H      -0.169812    1.870350    1.262970
H      -1.116230   -0.371680    1.670476
H       1.211049   -0.827898    1.890569
H       2.169430   -2.183335   -0.448051
H       1.153274    1.005337   -2.461723
