19

C      -0.042928    1.595547   -0.063875
C       0.006804    0.067922    0.034606
C      -1.390567   -0.565039    0.035180
C      -1.396012   -2.111011    0.041120
C      -0.787958   -2.713207    1.319485
C      -2.829917   -2.583520   -0.095702
O      -3.286303   -3.169302   -1.043009
H       0.963138    2.026042   -0.064964
H      -0.544811    1.917537   -0.982873
H      -0.589890    2.029598    0.780464
H       0.584545   -0.336398   -0.806649
H       0.548636   -0.216853    0.943806
H      -1.957385   -0.197981    0.902744
H      -1.933391   -0.218042   -0.853749
H      -0.856738   -2.477773   -0.839546
H      -1.334078   -2.379479    2.209517
H      -0.822169   -3.806770    1.293963
H       0.256990   -2.416977    1.438196
H      -3.471930   -2.331093    0.784103
