17

O      -0.185238    1.520001    0.202265
C      -0.176803    0.133016    0.488904
C      -0.911752   -0.559721   -0.665137
C      -0.970361   -2.005773   -0.504624
C      -1.004281   -3.197691   -0.332887
C      -1.066720   -4.654088   -0.168929
O      -1.879097   -5.070877    0.894831
C      -1.573625   -5.248171   -1.488473
O      -2.566482   -5.928253   -1.523683
H       0.247591    1.981695    0.926026
H       0.846653   -0.264228    0.560888
H      -0.688937   -0.093505    1.435449
H      -1.923173   -0.141992   -0.735091
H      -0.404653   -0.302918   -1.603164
H      -0.041541   -5.038433   -0.023598
H      -2.621488   -5.540223    0.480549
H      -0.985359   -4.999093   -2.391842
