19

C      -0.064042    1.597622   -0.100560
C       1.422542    1.926519    0.083356
O       2.414705    1.915356   -0.975173
C       2.172364    0.713188   -0.250415
C       1.184254   -0.240511   -0.931530
C       0.000512    0.034484    0.012190
C       0.485807   -0.433306    1.390615
C       1.778436   -0.477915    1.751331
C       2.922512    0.057469    0.881378
H      -0.662159    2.071314    0.682298
H      -0.471029    1.900278   -1.071102
H       1.716914    2.545517    0.926660
H       0.990708    0.076539   -1.959027
H       1.510448   -1.282814   -0.922375
H      -0.939935   -0.459267   -0.253742
H      -0.268145   -0.778506    2.093571
H       2.049549   -0.868282    2.729276
H       3.603047   -0.746500    0.570625
H       3.515991    0.782911    1.450737
