29

C      -1.218713    1.488556   -0.477066
C      -0.465122    0.176316   -0.229835
C       0.409713   -0.370516   -1.390285
C      -0.457058   -0.594216   -2.644780
C       1.536094    0.626777   -1.717395
C       0.981513   -1.731355   -0.902117
C       2.015152   -2.457996   -1.802136
C       3.460934   -2.199050   -1.349644
C       1.740803   -3.969318   -1.840072
H      -0.541272    2.317448   -0.704012
H      -1.931943    1.404395   -1.302572
H      -1.786716    1.769827    0.415591
H       0.179414    0.302375    0.650391
H      -1.193673   -0.599507    0.041256
H      -0.852461    0.349230   -3.032996
H       0.116975   -1.056925   -3.453813
H      -1.307881   -1.249250   -2.424392
H       2.163347    0.821209   -0.840149
H       2.182645    0.254081   -2.517445
H       1.130758    1.585448   -2.055444
H       1.426494   -1.584868    0.091712
H       0.122624   -2.396071   -0.742585
H       1.914943   -2.084528   -2.829369
H       3.627037   -2.605649   -0.344583
H       4.178205   -2.680523   -2.023433
H       3.697854   -1.132361   -1.316735
H       0.741646   -4.183541   -2.233765
H       2.470238   -4.491542   -2.468796
H       1.800589   -4.402525   -0.834169
