20

C      -0.266486    1.467238    0.058631
C       0.042182   -0.022672   -0.038380
C       1.289664   -0.387788   -0.907929
C       2.075576   -0.784192    0.377748
C       0.771775   -0.641229    1.169867
C       0.583318   -0.326339    2.633320
C       0.177294   -1.670104    2.074947
O      -1.178734   -1.955985    1.883160
H       0.623032    2.042303    0.340167
H      -0.625701    1.853388   -0.901892
H      -1.041383    1.665165    0.807097
H      -0.864653   -0.569970   -0.309999
H       1.113005   -1.229541   -1.581335
H       1.712837    0.435962   -1.488911
H       2.535032   -1.777028    0.379825
H       2.839042   -0.053115    0.661415
H       1.459109   -0.270748    3.273430
H      -0.218448    0.357690    2.895823
H       0.795488   -2.532828    2.330392
H      -1.583261   -2.077478    2.748325
