21

O       0.222773    1.069896   -0.607673
C      -0.029360   -0.297138   -0.315051
C      -1.477153   -0.413265    0.161590
C      -2.519933   -0.008966   -0.928636
C      -3.185738   -1.294129   -1.390301
C      -2.298274   -2.424972   -1.886096
C      -2.771745   -2.422410   -0.467831
O      -3.619822   -3.473799   -0.113722
C      -1.851013   -1.853508    0.605689
H       1.107727    1.141217   -0.976511
H       0.144054   -0.926601   -1.201696
H       0.642604   -0.661856    0.478701
H      -1.558454    0.272274    1.010707
H      -3.274931    0.657924   -0.498088
H      -2.036192    0.549803   -1.736027
H      -4.194872   -1.254719   -1.786142
H      -2.778577   -3.155756   -2.527401
H      -1.254682   -2.240565   -2.118007
H      -4.220752   -3.152797    0.568441
H      -0.969319   -2.482262    0.777876
H      -2.404954   -1.829135    1.552762
