17

C      -0.053409    1.467221    0.046405
C      -0.002117    0.014536    0.001784
C       0.031231   -1.190573   -0.037099
C       0.076757   -2.604971   -0.081431
C       1.177912   -3.413605    0.112273
N       0.731745   -4.704477   -0.027554
C       1.523075   -5.912578    0.087886
C      -0.605685   -4.623664   -0.296982
N      -1.038398   -3.388590   -0.338335
H       0.608377    1.916025   -0.703437
H      -1.068514    1.829826   -0.149631
H       0.250606    1.850245    1.027486
H       2.207372   -3.183750    0.330730
H       1.967968   -5.994742    1.084253
H       0.875762   -6.775953   -0.076711
H       2.323043   -5.928698   -0.658585
H      -1.203797   -5.510291   -0.452445
