20

C       0.064294    1.602188    0.031223
C      -0.003122    0.072404   -0.004475
C       0.644034   -0.507761   -1.267029
C       0.681482   -2.058267   -1.303865
C      -0.720397   -2.703487   -1.362349
C       1.493829   -2.511839   -2.426267
C       2.159280   -2.874068   -3.368725
C       2.910910   -3.285809   -4.430966
N       3.550623   -3.636308   -5.335563
H       1.101301    1.954036    0.007765
H      -0.453415    2.041037   -0.828618
H      -0.402324    1.997612    0.938326
H       0.499105   -0.338245    0.881675
H      -1.050473   -0.243534    0.061970
H       0.116271   -0.147903   -2.159171
H       1.672263   -0.136540   -1.346958
H       1.177982   -2.403304   -0.385069
H      -1.297592   -2.442923   -0.472310
H      -1.266707   -2.357523   -2.244840
H      -0.644978   -3.792368   -1.413365
