22

C       2.467997    0.418193   -0.613211
C       1.495956   -0.664387   -0.208598
N       1.925155   -1.608549    0.840912
C       0.748594   -0.736571    1.082225
C       1.009070    0.255322    2.210903
O       1.394987   -0.419683    3.397492
C      -0.629129   -1.376894    1.071252
C      -0.961016   -2.175433    2.331693
O      -2.244675   -2.751175    2.128544
H       3.066979    0.761122    0.232497
H       3.159505    0.035205   -1.371409
H       1.942224    1.277892   -1.042735
H       0.962638   -1.103512   -1.052063
H       1.623946   -2.554268    0.619082
H       1.769558    0.990329    1.916339
H       0.094056    0.808609    2.447057
H       2.098496   -1.021365    3.118777
H      -1.396752   -0.604036    0.939915
H      -0.717181   -2.050606    0.209706
H      -0.196306   -2.952743    2.492846
H      -0.941329   -1.524620    3.214977
H      -2.504299   -3.194412    2.941213
