18

C       0.109515    1.268463    0.395895
N      -0.046674    0.014329   -0.335402
C      -1.198620   -0.733912   -0.123018
N      -1.246676   -2.027835    0.049260
C      -2.602978   -2.360934    0.113776
C      -3.060582   -3.767984    0.309306
C      -3.343572   -1.223403   -0.006418
O      -4.670197   -0.922877    0.001715
N      -2.452437   -0.174621   -0.150670
H       1.091969    1.687659    0.166529
H      -0.634460    1.999169    0.061053
H       0.016415    1.162349    1.487515
H       0.750707   -0.600008   -0.231354
H      -2.677492   -4.190941    1.245296
H      -4.154531   -3.836553    0.342020
H      -2.717141   -4.418528   -0.503325
H      -5.159923   -1.737426    0.151166
H      -2.704424    0.775516   -0.360942
