18

C       0.021065    1.563353    0.025349
C       0.012032    0.036229    0.008388
C       0.684573   -0.521348   -1.272458
C       0.812322   -2.033559   -1.254343
O       0.635614   -2.738841   -2.215947
C       1.168958   -2.665660    0.119893
O       1.851750   -3.655769    0.192951
C       0.581582   -1.939149    1.331086
N       0.630568   -0.482401    1.228886
H       1.048928    1.946056    0.027641
H      -0.481454    1.967530   -0.857941
H      -0.483300    1.936517    0.919857
H      -1.032364   -0.306681    0.022559
H       0.169097   -0.221476   -2.190541
H       1.706063   -0.112348   -1.320715
H      -0.471394   -2.244905    1.425472
H       1.099160   -2.280951    2.231397
H       1.593294   -0.161546    1.290731
