19

O      -0.121565    1.387718    0.216730
C      -0.020051    0.010109   -0.006500
C      -0.412779   -0.574838   -1.336494
C      -1.303280   -0.760870   -0.115228
C      -1.407859   -2.051120    0.657896
C      -0.975805   -3.395176    0.109551
C      -0.110735   -2.674311    1.103574
O       1.061668   -2.085889    0.608861
C       1.087700   -0.673384    0.781292
H       0.597625    1.820299   -0.257787
H      -0.777479    0.113646   -2.090632
H       0.156816   -1.417003   -1.712259
H      -2.203577   -0.156128   -0.120914
H      -2.222980   -2.066837    1.374218
H      -1.513260   -4.277160    0.440034
H      -0.613811   -3.439384   -0.911234
H      -0.015206   -3.065175    2.115661
H       2.075215   -0.348629    0.433403
H       0.992342   -0.397302    1.842953
