14

C       0.088673    1.487272    0.055475
C      -0.058490    0.008673    0.048412
C      -1.133120   -0.843095   -0.052288
C      -2.537948   -0.481047   -0.191215
O      -3.445143   -1.280815   -0.275826
C      -0.597122   -2.180141    0.006636
C       0.738498   -2.039629    0.136326
O       1.081180   -0.710648    0.163218
H       0.725262    1.821261   -0.771204
H      -0.884078    1.971754   -0.041847
H       0.553745    1.829936    0.986326
H      -2.742648    0.612374   -0.216596
H      -1.166130   -3.093843   -0.044400
H       1.562359   -2.728265    0.220150
