17

C       0.060367    1.351629   -0.208233
C      -0.086254   -0.115997    0.096062
C      -0.855241   -0.607658    1.295934
C       0.643008   -0.785538    1.224535
O       1.111637   -2.075772    0.972410
C       1.706785   -2.158989   -0.310841
C       0.736807   -1.782002   -1.425400
O       0.778367   -2.248599   -2.527831
O      -0.228955   -0.886693   -1.092850
H       0.946298    1.537258   -0.824175
H      -0.816329    1.718799   -0.750480
H       0.156995    1.926575    0.716947
H      -1.263144    0.125442    1.982632
H      -1.442689   -1.508652    1.163289
H       1.289505   -0.185933    1.864829
H       2.602882   -1.522862   -0.384819
H       2.009095   -3.194515   -0.470757
