18

C       0.034257    1.535639   -0.147612
N      -0.017834    0.077639   -0.081628
C      -1.172672   -0.512851    0.735406
C      -0.340817   -1.777048    1.043867
C      -0.270517   -1.678443    2.597706
C       1.253629   -1.700584    2.888126
C       1.837179   -0.974603    1.919657
C       0.618593   -0.556144    1.116451
C      -0.532930   -0.213997    2.127284
H       1.022048    1.844795   -0.504779
H      -0.705557    1.884085   -0.875538
H      -0.158764    2.044940    0.811103
H      -2.203519   -0.416281    0.395148
H      -0.185852   -2.640316    0.395979
H      -0.934132   -2.225049    3.267656
H       1.729100   -2.207374    3.716505
H       2.878433   -0.742341    1.756341
H      -0.614092    0.679322    2.747640
