18

C       0.517655    1.160392   -0.152452
O       0.088271   -0.191071    0.069081
C       0.509575   -0.752730    1.215827
O       1.212429   -0.197708    2.023669
C      -0.048104   -2.168317    1.373526
N       0.525235   -2.931220    2.461301
C       1.918590   -3.331399    2.218791
C       2.469675   -4.046569    3.364299
C       2.931194   -4.615634    4.316205
H       1.608463    1.215487   -0.187775
H       0.088575    1.455158   -1.109889
H       0.158462    1.813808    0.646439
H      -1.131141   -2.071907    1.522320
H       0.078604   -2.705873    0.427413
H       0.496894   -2.375161    3.310492
H       1.929021   -3.990353    1.339702
H       2.575659   -2.477544    1.983866
H       3.338376   -5.125221    5.153988
