17

C       0.018247    1.563945    0.043881
C      -0.015557    0.038195   -0.074239
C       0.745614   -0.505201   -1.307996
C       0.892033   -2.040103   -1.211375
C       1.654241   -2.617607   -2.317266
N       2.257183   -3.058991   -3.198520
C      -0.017305   -0.113751   -2.564619
O       0.215447    0.859403   -3.229978
H       1.045290    1.925225    0.157893
H      -0.403878    2.047623   -0.841087
H      -0.552965    1.892926    0.916629
H       0.425139   -0.412794    0.823215
H      -1.055373   -0.315084   -0.111128
H       1.734046   -0.038467   -1.361266
H       1.386317   -2.303781   -0.270417
H      -0.098415   -2.511708   -1.187294
H      -0.872376   -0.789326   -2.809376
