17

C      -0.007956    1.523169   -0.036554
C      -0.010670    0.024853    0.000067
C       0.507038   -1.024521   -0.966488
C       1.136926   -0.877618    0.405279
C       0.494051   -2.007685    1.271362
O       0.049204   -2.963579    0.316081
C      -0.581121   -2.028009   -0.550530
C      -1.135956   -0.922506    0.474445
O      -0.722332   -1.429835    1.736398
H       0.944173    1.906575   -0.417618
H      -0.803278    1.909839   -0.683457
H      -0.158301    1.939575    0.965627
H       1.032744   -0.937158   -1.908751
H       2.142252   -0.509033    0.550537
H       1.057824   -2.469923    2.076400
H      -1.231634   -2.514225   -1.271520
H      -2.179713   -0.619726    0.477293
