21

C      -0.119880    1.532675   -0.014082
C       0.048656    0.029923    0.025898
C       1.382262   -0.629950   -0.233313
C       0.773289   -0.694709    1.144799
C       1.422318    0.046962    2.297929
N       0.180095   -1.962952    1.500989
C       0.971064   -3.038035    1.861664
N       0.245812   -4.109831    2.380094
O       2.182365   -3.054834    1.757980
H       0.776210    2.055247    0.331289
H      -0.316120    1.867337   -1.038607
H      -0.959022    1.863549    0.608625
H      -0.806539   -0.519668   -0.360315
H       1.412348   -1.542614   -0.814964
H       2.249691    0.010712   -0.354541
H       1.879716    0.984904    1.974061
H       0.690007    0.282179    3.079697
H       2.205639   -0.579120    2.733360
H      -0.733445   -1.916398    1.929175
H      -0.683354   -4.257878    2.014004
H       0.799760   -4.952161    2.425516
