17

C      -0.058134    1.567539    0.097302
C      -0.040546    0.037394   -0.001551
C      -1.458434   -0.545348    0.020139
C       0.709757   -0.449736   -1.270033
O       0.088242    0.002011   -2.472980
C       2.132341   -0.097130   -1.237346
C       3.290448    0.226473   -1.216100
H       0.953880    1.982695    0.069436
H      -0.635293    2.005675   -0.724806
H      -0.529298    1.888105    1.031168
H       0.520098   -0.359269    0.855024
H      -2.012406   -0.233977   -0.870287
H      -1.439718   -1.640460    0.037844
H      -2.006711   -0.204655    0.903757
H       0.624705   -1.543134   -1.309324
H       0.367207    0.911868   -2.620222
H       4.318348    0.493861   -1.202434
