18

N       0.435711    0.856051   -1.685967
C      -0.129602    0.343267   -0.674306
C      -1.608745   -0.012160   -0.724915
C      -2.341823    0.178414    0.582760
C      -3.565747   -0.580263    0.915539
N      -2.300655   -0.888396    1.617724
N       0.493751    0.019801    0.556116
C       1.822368    0.176205    0.864248
O       2.683762    0.581509    0.116232
H       1.430668    1.001274   -1.510595
H      -2.044058    0.598152   -1.520166
H      -1.706983   -1.060690   -1.041246
H      -2.246896    1.172569    1.015823
H      -4.333361   -0.124906    1.533469
H      -3.934147   -1.302004    0.191499
H      -1.915871   -1.736303    1.202777
H      -0.106171   -0.289398    1.309680
H       2.030662   -0.123813    1.909210
