16

O       0.035569    1.362971    0.090450
C      -0.054755   -0.038043    0.061194
C      -1.498381   -0.538992   -0.116025
C      -1.622429   -2.084404    0.098929
N      -2.349258   -2.243852    1.364694
C      -2.637287   -1.076243    1.755066
O      -2.257530    0.002606    1.024057
C      -2.104022   -0.067503   -1.352131
C      -2.586710    0.275099   -2.397225
H      -0.569315    1.668813    0.776356
H       0.550306   -0.385496   -0.782010
H       0.341596   -0.499012    0.980693
H      -2.170410   -2.566058   -0.714593
H      -0.636220   -2.556909    0.166685
H      -3.187766   -0.830475    2.656531
H      -3.013009    0.593258   -3.316812
