14

N       0.011225   -1.154880    0.193368
C       0.046245   -0.004815    0.080268
C       0.053565    1.423822   -0.106740
C      -0.944102    2.106705   -1.049227
N      -0.208296    3.196457   -1.718854
C       1.041844    3.456836   -0.970230
C       1.266007    2.264519   -0.049224
O       0.345110    2.228397    1.046131
H      -1.361045    1.409242   -1.779512
H      -1.768215    2.503503   -0.445419
H       0.037855    2.888196   -2.651457
H       1.880101    3.599658   -1.657647
H       0.947147    4.363317   -0.360277
H       2.254729    1.863626    0.156605
