20

C       0.030265    1.416406    0.091272
N       0.035103   -0.031272    0.050741
C      -0.016050   -0.780829   -1.101013
C      -0.060001   -2.109709   -0.754710
C      -0.039638   -2.168760    0.663803
C       0.015445   -0.876033    1.144461
C       0.103542   -0.378182    2.552472
C       1.550132   -0.159688    3.036192
O       1.614204    0.369282    4.349641
H       0.891454    1.805608    0.643425
H       0.079356    1.796588   -0.930362
H      -0.882726    1.802149    0.558254
H      -0.023280   -0.296806   -2.065051
H      -0.102910   -2.941716   -1.440498
H      -0.065021   -3.058290    1.276075
H      -0.446998    0.560586    2.686273
H      -0.375720   -1.113883    3.210159
H       2.108848   -1.103312    2.945209
H       2.055537    0.572237    2.397086
H       1.250163   -0.289146    4.950037
