18

C       0.646204    1.455416    0.037445
O       0.755503    0.052532    0.118061
C      -0.134142   -0.514119    1.053620
C       0.078983   -2.015802    1.050980
C       1.287823   -2.653816    1.738687
C       1.210728   -2.553111    3.200696
N       0.398572   -3.621806    2.536199
C      -0.751323   -2.919325    1.985999
O      -1.910899   -3.102587    2.181843
H       0.875773    1.938372    1.000287
H       1.366706    1.796016   -0.709621
H      -0.363289    1.768389   -0.271486
H       0.038384   -0.090148    2.057088
H      -1.182119   -0.297162    0.787781
H      -0.025829   -2.384677    0.024609
H       2.160435   -3.036698    1.225202
H       2.022454   -2.966678    3.789614
H       0.688762   -1.725737    3.674746
