19

O      -0.312696    0.061110   -0.093588
C      -0.206915    1.247435    0.033557
C      -1.179374    2.387613    0.369327
C       0.063591    3.308513    0.570308
C       1.002121    2.196730   -0.003479
C       2.280866    1.795370    0.763637
C       3.438500    2.220785   -0.178093
O       2.847572    3.008621   -1.203729
C       1.561404    2.463730   -1.419059
H      -1.804469    2.657620   -0.488374
H      -1.833057    2.215193    1.228128
H       0.057199    4.248585    0.015643
H       0.260499    3.524144    1.622860
H       2.329675    2.302316    1.730267
H       2.292772    0.717589    0.948026
H       4.202314    2.829648    0.311936
H       3.927059    1.335060   -0.611548
H       1.619494    1.515131   -1.978920
H       0.976773    3.182438   -1.999153
