11

N      -0.093749    1.313708    0.009975
C      -0.005118    0.044180    0.003237
N       1.116039   -0.785557   -0.007257
C       0.763855   -2.137566   -0.011974
O       1.529290   -3.070773   -0.020854
C      -0.733547   -2.139868   -0.003215
C      -1.168534   -0.876181    0.005472
H       0.826447    1.759038    0.006857
H       2.072988   -0.472776   -0.011224
H      -1.301669   -3.058408   -0.004381
H      -2.181254   -0.499904    0.013203
