19

C       0.423930    1.425436    0.099210
C      -0.028407   -0.005705   -0.131495
O       0.748543   -0.556531   -1.178730
C       0.396026   -1.894851   -1.463995
C       1.225868   -2.418167   -2.539947
C       1.907970   -2.872820   -3.421810
C       2.698178   -3.413519   -4.492614
C       4.085366   -2.965737   -4.730922
O       3.827922   -4.232762   -4.142943
H       1.481898    1.453023    0.374326
H       0.290022    2.020593   -0.808343
H      -0.157746    1.882961    0.904973
H       0.092999   -0.604995    0.787120
H      -1.099408   -0.037381   -0.395868
H       0.516842   -2.527364   -0.566853
H      -0.668096   -1.962344   -1.751434
H       2.137092   -3.788285   -5.347960
H       4.478776   -2.984207   -5.746618
H       4.515562   -2.217241   -4.068562
