19

C      -0.075277    1.415984   -0.059010
O       0.076661    0.018646    0.023089
C       0.623602   -0.542076   -1.148388
C       0.701829   -2.053289   -0.952604
C       1.304040   -2.762556   -2.162890
C       1.223060   -4.300121   -2.243852
O       0.420216   -4.205610   -3.465587
C       0.435379   -2.834371   -3.426076
O      -0.101408   -2.078190   -4.170914
H       0.890832    1.924131   -0.208439
H      -0.745193    1.706307   -0.883358
H      -0.508883    1.753769    0.885310
H       0.004196   -0.303630   -2.027412
H       1.630515   -0.129775   -1.341220
H       1.306139   -2.265595   -0.063288
H      -0.305604   -2.436344   -0.753123
H       2.301099   -2.371755   -2.389951
H       2.155751   -4.834098   -2.434226
H       0.654441   -4.787371   -1.448499
