19

C      -0.246060    1.229260    0.116375
O       0.096726   -0.146073    0.137606
C       0.674085   -0.614502   -1.057520
C       1.255573   -2.010434   -0.801580
N       2.432019   -1.906922    0.043165
C       2.215521   -2.010920    1.484504
C       2.835599   -3.132509    0.730310
C      -0.324412   -0.658565   -2.152102
N      -1.110119   -0.685798   -2.998980
H       0.636032    1.857327   -0.074624
H      -1.007650    1.444949   -0.645029
H      -0.649046    1.467147    1.102422
H       1.495453    0.045826   -1.377526
H       0.459270   -2.643436   -0.374319
H       1.551550   -2.445060   -1.762171
H       2.826781   -1.354069    2.095955
H       1.194646   -2.140299    1.834455
H       2.231507   -4.025119    0.576677
H       3.905698   -3.311039    0.778073
