24

C      -0.748196    1.409854    0.036567
C      -0.190401    0.009688    0.034187
C       0.142189   -0.705678    1.321725
C       1.525402   -0.387107    1.967793
C       1.656900    1.103579    2.327630
C       1.630915   -1.220988    3.258363
C       2.660711   -0.788326    1.010772
N      -0.003391   -0.661784   -1.039992
O      -0.340659    0.084989   -2.183593
H      -0.069295    2.102121   -0.472776
H      -1.687087    1.435434   -0.526035
H      -0.925957    1.771748    1.049725
H      -0.642519   -0.482805    2.056822
H       0.105268   -1.781130    1.122114
H       0.845261    1.430011    2.987864
H       2.601357    1.286575    2.851760
H       1.647913    1.741928    1.439266
H       1.543568   -2.292190    3.046755
H       2.595143   -1.055398    3.751040
H       0.842242   -0.954270    3.971005
H       2.609018   -0.232101    0.070857
H       3.636351   -0.593039    1.469175
H       2.611172   -1.854076    0.763923
H      -0.179533   -0.548775   -2.890159
