15

C       0.046168    1.429236   -0.011594
O      -0.023721    0.007628   -0.029029
C       0.569953   -0.601108   -1.071481
C       0.682831   -1.937035   -1.260041
O       0.408300   -3.034162   -0.536628
O       1.364152   -2.111974   -2.475568
C       1.591489   -0.861075   -2.903535
N       2.185343   -0.721680   -4.135221
N       1.156370    0.086231   -2.126457
H       1.083836    1.777673    0.022766
H      -0.438125    1.864266   -0.891707
H      -0.478720    1.738808    0.893645
H      -0.428487   -3.421855   -0.824198
H       2.835775   -1.457879   -4.370293
H       2.562553    0.203542   -4.280142
