10

C      -0.009925    1.549519    0.007322
C       0.007405    0.017220    0.050313
O       0.720857   -0.496305    1.158646
C      -1.369951   -0.523559    0.008944
N      -2.450816   -0.932331    0.007169
H       1.018923    1.916304    0.027241
H      -0.502615    1.909694   -0.899980
H      -0.548004    1.953776    0.870537
H       0.536028   -0.364942   -0.829709
H       0.277026   -0.206445    1.964218
