22

C       0.008903    1.549077    0.176446
C      -0.100026    0.021884    0.122208
C      -1.506999   -0.511097   -0.209968
C      -1.975787   -0.120772   -1.620451
C      -1.551671   -2.021786   -0.045357
C      -1.747335   -2.648020    1.322787
C      -2.834627   -2.729164    0.278536
O      -3.979853   -1.933507    0.407525
H       1.012906    1.858834    0.483882
H      -0.191886    2.010718   -0.795186
H      -0.702676    1.969734    0.896253
H       0.615062   -0.370782   -0.614473
H       0.206208   -0.392714    1.090654
H      -2.214757   -0.078989    0.508228
H      -2.984914   -0.499519   -1.803602
H      -1.994966    0.964437   -1.757027
H      -1.310430   -0.540647   -2.385153
H      -0.887979   -2.558259   -0.721185
H      -1.199911   -3.546739    1.586427
H      -1.922902   -1.964110    2.147816
H      -3.010283   -3.696633   -0.192461
H      -4.509317   -2.288978    1.128564
