24

C       0.271894    1.671709    0.169141
C       0.043827    0.158685    0.041977
C       0.641187   -0.367652   -1.270299
C       0.609889   -0.625256    1.240481
C      -0.051176   -0.319248    2.589114
C       0.494480   -1.207138    3.714128
N      -0.126698   -0.942742    5.002888
C       0.523971   -0.347085    6.037821
O       1.687132   -0.003115    6.033945
H       1.342625    1.899801    0.235666
H      -0.125469    2.200645   -0.703405
H      -0.213039    2.090082    1.055810
H      -1.041612   -0.018443    0.011617
H       1.727859   -0.221326   -1.291808
H       0.448127   -1.438206   -1.397380
H       0.220291    0.154635   -2.135740
H       0.507300   -1.699666    1.033828
H       1.690166   -0.434342    1.314460
H       0.104656    0.727614    2.870843
H      -1.138040   -0.463291    2.506111
H       0.359637   -2.265844    3.457309
H       1.564154   -1.033384    3.853696
H      -1.105723   -1.150652    5.120781
H      -0.141791   -0.212284    6.914136
