18

C       0.008937    1.588392   -0.017049
C       1.515704    1.921768    0.004513
O       2.026422    1.743269    1.348840
C       2.176718    0.329131    1.070392
C       0.826951   -0.382516    1.301987
C       0.038996    0.039487    0.035568
C       1.074757   -0.270221   -1.069539
C       2.183428    0.592791   -0.467573
H      -0.504915    2.055765    0.826980
H      -0.461355    1.932516   -0.945608
H       1.797571    2.887406   -0.420641
H       3.039173   -0.104087    1.581427
H       0.951370   -1.471282    1.332398
H       0.372416   -0.058059    2.241665
H      -0.936225   -0.438078   -0.073218
H       1.339410   -1.330993   -1.127893
H       0.759656    0.065862   -2.062738
H       3.148759    0.661023   -0.964281
