27

C      -0.109228    1.524766    0.200022
C       0.015709    0.002974    0.065793
C       0.714417   -0.526030   -1.213680
C       0.746300   -2.065780   -1.149342
C       0.015931   -0.049830   -2.512155
C      -1.459364   -0.435427   -2.669615
C       2.165070   -0.015377   -1.281809
O       2.856387   -0.359803   -0.098611
C       4.203230    0.042029   -0.111435
H       0.870632    2.011551    0.226687
H      -0.682174    1.969402   -0.620191
H      -0.622909    1.781238    1.132108
H       0.570467   -0.381087    0.927516
H      -0.983411   -0.444954    0.122955
H      -0.254793   -2.484569   -1.010192
H       1.162264   -2.490172   -2.070672
H       1.370177   -2.396923   -0.315424
H       0.104137    1.041169   -2.587075
H       0.577213   -0.451937   -3.366334
H      -1.845268   -0.072067   -3.627332
H      -1.603604   -1.519797   -2.649229
H      -2.082268   -0.001828   -1.881206
H       2.670664   -0.459532   -2.157246
H       2.184673    1.078317   -1.422847
H       4.646740   -0.261119    0.840429
H       4.764591   -0.432878   -0.932180
H       4.304426    1.134153   -0.218279
