17

N       0.252378    1.206395   -0.659007
C      -0.038570    0.358118    0.373337
O       0.663777    0.252544    1.359106
C      -1.334990   -0.394379    0.222961
N      -1.290868   -1.814750    0.660217
C      -2.043608   -0.862461    1.440678
C      -1.809245   -0.542635    2.910496
O      -3.245626   -0.508743    3.134115
C      -3.535477   -0.839774    1.764811
H       1.145273    1.672806   -0.637046
H      -0.229749    1.153113   -1.539505
H      -1.948670   -0.150724   -0.642994
H      -1.911052   -2.369161    0.072640
H      -1.315980   -1.340222    3.476121
H      -1.331431    0.415750    3.128683
H      -4.134197   -0.067292    1.264161
H      -4.045708   -1.809144    1.667202
