17

O       0.138409    0.493076    0.883353
C      -0.251650    0.210479   -0.446569
C      -1.585152   -0.518131   -0.512160
C      -1.734840   -1.725033   -1.409040
C      -1.606185   -1.901373    0.076299
O      -0.458493   -2.469523    0.737482
C      -1.284575   -3.120881    1.739878
C      -2.537103   -2.531054    1.064486
O      -3.717189   -2.564652    1.241471
H       0.296890   -0.365246    1.295334
H      -0.328724    1.172629   -0.962723
H       0.513615   -0.381714   -0.970115
H      -2.469011    0.083310   -0.319070
H      -2.700758   -1.946612   -1.850368
H      -0.873556   -2.016981   -2.001637
H      -1.200758   -4.212142    1.701985
H      -1.080587   -2.761463    2.753915
