17

O       0.189778    1.315567    0.295657
C       0.007178   -0.025810   -0.117405
C      -1.439214   -0.414188   -0.066844
O      -1.932244   -1.564510   -0.765474
C      -2.575070   -0.300041   -1.001695
C      -3.586600   -0.085890    0.141362
C      -2.389509   -0.212999    1.110078
C      -2.259626   -0.602547    2.510201
O      -2.108962    0.774831    2.098334
H      -0.277187    1.420297    1.135454
H       0.375776   -0.112778   -1.144207
H       0.594790   -0.727399    0.499213
H      -2.608570    0.060303   -2.022482
H      -4.004164    0.923788    0.169754
H      -4.382260   -0.830030    0.215589
H      -3.152615   -0.802399    3.099030
H      -1.350532   -1.086776    2.861888
