18

O       0.242340    1.239525    0.587979
C       0.083048   -0.087185    0.171896
C      -1.380446   -0.582012    0.117853
C      -1.320419   -1.672291   -0.974125
C      -2.191892   -1.603349   -2.265153
C      -0.874825   -1.397215   -3.073918
N      -0.128060   -1.338614   -1.795901
C       0.511989   -0.238744   -1.302336
O       1.208703    0.561920   -1.892644
H       0.806574    1.649575   -0.087579
H       0.685353   -0.766435    0.797556
H      -1.752934   -0.946971    1.076763
H      -2.009272    0.256745   -0.199997
H      -1.259894   -2.678277   -0.545847
H      -2.761065   -2.502720   -2.504088
H      -2.858856   -0.738857   -2.290559
H      -0.580045   -2.247524   -3.694134
H      -0.783994   -0.477449   -3.657260
