19

C      -0.000028    1.366583   -0.004777
O      -0.036272   -0.044623    0.126008
C       0.627540   -0.521926    1.221376
C       0.345801   -0.292829    2.728614
C       1.518937   -1.300907    2.729074
C       2.238483   -1.947907    3.874731
C       1.004760   -2.013324    1.429296
O       2.287397   -1.930052    0.742571
C       2.180793   -0.666134    1.459756
H       1.031283    1.733719   -0.098701
H      -0.551191    1.615358   -0.913540
H      -0.475749    1.864797    0.851072
H       0.562015    0.700838    3.132207
H      -0.613297   -0.660638    3.105235
H       1.552891   -2.533602    4.496248
H       3.014974   -2.619097    3.493594
H       2.715872   -1.200714    4.517742
H       0.397504   -2.911010    1.312807
H       2.994867    0.054924    1.382667
