16

C       0.277995    1.470830    0.128659
C       0.003964   -0.009258   -0.038700
C       0.700961   -0.667444   -1.299886
C       1.457966   -1.769035   -0.625570
C       1.268957   -1.666704    0.696733
O       1.953852   -2.606853    1.362001
C       2.578404   -3.286927    0.317371
N       2.320156   -2.829611   -0.865709
O       0.493597   -0.703707    1.193192
H       1.355045    1.658261    0.175843
H      -0.131177    2.022392   -0.724006
H      -0.183519    1.852903    1.042923
H      -1.071080   -0.206957   -0.056103
H      -0.049346   -1.004719   -2.022491
H       1.343006    0.061043   -1.810444
H       3.199955   -4.116089    0.610254
