23

C      -0.019917    1.594198    0.062617
C      -0.166507    0.073352   -0.093856
C       0.661503   -0.503222   -1.245843
O       0.140975   -0.017124   -2.475489
C       2.224271   -0.623438   -1.138572
C       2.006884   -1.817683   -0.167189
C       0.972082   -2.037057   -1.317111
C      -0.030137   -3.150473   -1.468875
C       2.144490   -1.668785   -2.289719
H       1.021714    1.878740    0.246091
H      -0.365609    2.137565   -0.824842
H      -0.617330    1.957937    0.903772
H       0.091110   -0.400819    0.855538
H      -1.216932   -0.171728   -0.291199
H       0.182337    0.943761   -2.461548
H       2.949473    0.185680   -1.032852
H       2.821816   -2.545338   -0.136278
H       1.637198   -1.617453    0.839005
H      -0.718781   -3.185777   -0.617160
H      -0.625108   -3.011579   -2.377576
H       0.468647   -4.123410   -1.535806
H       1.868923   -1.303269   -3.275990
H       2.965460   -2.389838   -2.330101
