18

C      -0.316967    1.461247    0.312842
C      -0.136108   -0.046208    0.267177
O       0.804711   -0.633043    0.772172
N      -1.112594   -0.725589   -0.399335
C      -2.472005   -0.384159   -0.835528
C      -2.780324   -1.900730   -0.913958
C      -1.317558   -2.170324   -0.403663
C      -3.853382   -2.411330    0.012497
O      -4.520708   -1.719333    0.737974
H       0.590734    1.907774    0.717581
H      -0.519850    1.873265   -0.680549
H      -1.161723    1.726203    0.958450
H      -3.076584    0.136768   -0.086283
H      -2.518322    0.156146   -1.786705
H      -2.955942   -2.292770   -1.919132
H      -0.672118   -2.716973   -1.097208
H      -1.236060   -2.626904    0.589167
H      -3.980217   -3.517477   -0.001141
