15

O       0.465652    0.705115    0.838348
C      -0.062525    0.209652   -0.359947
C      -1.460807   -0.344347   -0.196673
N      -1.980450   -0.286061    1.025494
C      -3.221333   -0.778819    1.169477
C      -3.936650   -1.320417    0.122369
C      -3.282896   -1.326007   -1.117402
O      -3.908059   -1.835470   -2.185852
N      -2.057855   -0.845573   -1.284198
H      -0.226297    0.564226    1.503407
H      -0.098491    0.996184   -1.130351
H       0.573106   -0.591102   -0.769743
H      -3.647058   -0.731417    2.168420
H      -4.935963   -1.718306    0.234561
H      -3.295621   -1.746285   -2.931037
