18

O       0.136853    1.281232    0.420403
C       0.026436   -0.079291    0.098619
C      -1.406577   -0.488094   -0.060418
N      -2.385157    0.309755    0.082562
C      -3.602312   -0.477407   -0.155652
C      -3.079060   -1.887387   -0.460976
C      -3.689144   -3.170947   -0.004355
C      -3.624078   -2.826211   -1.485522
O      -1.647225   -1.781378   -0.373328
H      -0.769472    1.620528    0.459907
H       0.559370   -0.308815   -0.837293
H       0.482875   -0.708564    0.878587
H      -4.248084   -0.452187    0.729735
H      -4.170805   -0.051016   -0.990291
H      -3.017467   -3.941529    0.356802
H      -4.648156   -3.125287    0.501865
H      -4.538369   -2.543539   -1.997590
H      -2.909910   -3.371565   -2.092095
