11

N      -0.307459    1.367467    0.051182
C      -0.088588    0.124948    0.080344
C      -1.175868   -0.882959   -0.063374
N      -1.322380   -1.869260    0.720852
C      -0.520996   -1.980602    1.868797
O      -0.966147   -2.111535    2.964731
O       0.849615   -2.097262    1.680604
N       1.671972   -1.386742    0.691625
N       1.242564   -0.420731    0.091129
H       0.563751    1.899918    0.130216
H      -1.856119   -0.764481   -0.906758
