18

C       0.017252    1.539973    0.054286
C      -0.022658    0.039222    0.059139
C      -1.294362   -0.815592   -0.051662
C      -0.690044   -1.800907    1.013719
O      -0.648897   -3.177510    0.780145
C       0.601854   -0.967124    1.026707
C       1.175401   -0.792026   -0.370083
C       1.094012   -1.818358   -1.375528
N       0.988128   -2.654377   -2.170438
H       1.010179    1.916510    0.320082
H      -0.238142    1.937561   -0.934438
H      -0.701462    1.949224    0.772482
H      -2.191938   -0.305538    0.304379
H      -1.497449   -1.243233   -1.037545
H      -1.207777   -1.678583    1.968529
H      -0.257579   -3.340846   -0.086460
H       1.245087   -0.798033    1.883207
H       2.112026   -0.242896   -0.389287
