23

C       0.214975    1.253065   -0.320337
C      -0.039960   -0.184118    0.140828
C      -1.484286   -0.613704   -0.075696
O      -1.635179   -1.942860    0.408895
C      -2.875912   -2.554566    0.160713
C      -4.013114   -2.084755    1.035681
C      -3.126734   -3.025657   -1.263505
C      -2.699866   -4.007172   -0.186950
O      -1.415406   -4.540312   -0.200852
H       1.258211    1.537631   -0.157194
H       0.000759    1.374582   -1.387828
H      -0.412717    1.965214    0.226571
H       0.616693   -0.877414   -0.398007
H       0.199524   -0.289925    1.205127
H      -2.165775    0.064559    0.459426
H      -1.748409   -0.569476   -1.142937
H      -4.300289   -1.051487    0.810354
H      -4.896835   -2.710925    0.882398
H      -3.731081   -2.141243    2.092132
H      -4.146641   -3.048582   -1.633650
H      -2.373075   -2.783111   -2.005099
H      -3.435590   -4.716507    0.182424
H      -0.829240   -3.812353    0.049516
