17

O       0.174656    1.330706   -0.002957
C      -0.013620   -0.069453    0.020499
C      -1.447970   -0.496492    0.050461
C      -2.531276    0.288200    0.131163
C      -3.771106   -0.516386    0.093725
O      -4.906297   -0.121890    0.219156
C      -3.344043   -1.976295   -0.138747
C      -1.809841   -1.970576    0.000919
O      -1.102419   -2.569870   -1.079599
H      -0.150492    1.657176   -0.848398
H       0.483717   -0.574655   -0.821076
H       0.487948   -0.431834    0.928382
H      -2.533312    1.365766    0.228976
H      -3.863668   -2.647038    0.549759
H      -3.613376   -2.263449   -1.160612
H      -1.505082   -2.441608    0.950037
H      -1.247919   -3.520276   -1.042316
