22

C      -0.059753    1.546750    0.075096
C       0.008642    0.007952    0.058013
C       0.685140   -0.500782    1.344248
C      -1.425127   -0.550544   -0.018444
C       0.788747   -0.456827   -1.218595
C       2.239657    0.074544   -1.368481
O       2.825479   -0.329809   -2.586207
C       0.843052   -1.919680   -1.319883
N       0.946947   -3.068728   -1.405431
H       0.920692    2.005980    0.230801
H      -0.475824    1.940021   -0.859174
H      -0.707898    1.880218    0.891602
H       0.090590   -0.214115    2.217476
H       0.773963   -1.591525    1.343514
H       1.685664   -0.078274    1.477682
H      -1.944089   -0.191525   -0.913979
H      -1.430135   -1.644284   -0.040759
H      -2.003230   -0.229435    0.853808
H       0.237689   -0.100973   -2.098678
H       2.216520    1.165810   -1.393364
H       2.842835   -0.234031   -0.503881
H       2.931912   -1.288007   -2.565180
