15

O       0.086843    1.442884   -0.030671
C      -0.023252    0.061681    0.030914
C       1.035303   -0.572195   -0.728095
C       1.905772   -1.115803   -1.352393
C      -0.422337   -0.764322    1.251280
C      -1.613734   -0.166795    2.051375
O      -2.031805    1.088486    1.468911
C      -2.457802   -0.152625    0.862331
C      -1.316211   -0.749239   -0.007979
H      -0.650402    1.784298    0.496774
H       2.681329   -1.581792   -1.908347
H       0.195353   -1.567190    1.631488
H      -1.835011   -0.317764    3.100312
H      -3.522639   -0.289427    0.722936
H      -1.480355   -1.538905   -0.729212
