23

C       0.229444    1.399297    0.212660
C      -0.148190   -0.066059   -0.044985
C      -1.669963   -0.243067   -0.152860
C       0.543229   -0.593797   -1.290531
C       1.980059   -1.084201   -1.236494
C       0.849732   -2.055194   -1.458475
O       0.486570   -2.907030   -0.393015
C       0.647168   -2.718470   -2.804860
O       1.315872   -3.968493   -2.884572
H       1.313029    1.520876    0.308898
H      -0.105571    2.042242   -0.610223
H      -0.236952    1.769230    1.131871
H       0.197448   -0.668817    0.802732
H      -2.070715    0.309659   -1.011375
H      -1.931720   -1.297841   -0.275801
H      -2.174497    0.130702    0.744514
H       0.256196   -0.076305   -2.205701
H       2.652141   -0.867093   -2.060043
H       2.452534   -1.095180   -0.258414
H       1.273836   -3.400319   -0.140943
H      -0.431565   -2.839697   -2.991449
H       1.056056   -2.090266   -3.602394
H       0.876914   -4.543936   -2.248892
