11

O      -0.018710    0.007855    0.375887
C       0.020333    1.153728    0.046379
O      -1.157180    1.794347   -0.351840
C      -1.152597    3.080361   -0.728696
C      -0.020843    3.818314   -0.743532
N       1.181480    3.280741   -0.371111
C       1.206280    2.036504   -0.001199
C       2.453978    1.447021    0.394250
N       3.458163    0.970261    0.713247
H      -2.136438    3.437315   -1.009042
H      -0.029070    4.855835   -1.049716
