20

C      -0.038824    1.539684    0.108072
N       0.024026    0.091538    0.118354
C      -1.241763   -0.633817    0.373866
C      -0.481062   -1.614459    1.296755
C       0.679040   -0.588372    1.255999
C       2.091427   -1.111732    0.921861
N       3.069512   -0.098803    0.523186
C       2.607982   -1.882684    2.064185
N       2.969441   -2.475123    2.987928
H       0.964852    1.965417    0.016965
H      -0.623296    1.875293   -0.754974
H      -0.505339    1.957958    1.019808
H      -1.976806   -0.026637    0.924234
H      -1.723124   -1.038552   -0.522175
H      -0.920530   -1.817237    2.272331
H      -0.227434   -2.561501    0.815174
H       0.727014    0.034453    2.164500
H       1.987055   -1.803388    0.076736
H       2.720148    0.368915   -0.307753
H       3.169580    0.603393    1.251068
