17

C       0.092343    1.577481   -0.065409
O       1.454554    1.591024    0.408492
C       1.511646    0.150836    0.463196
C       0.061210    0.039021   -0.039062
C      -1.038010   -0.810593    0.619410
C      -1.883784   -0.844101   -0.694864
O      -2.032545   -2.293243   -0.711636
C      -0.672461   -2.061650   -0.243723
C      -0.404506   -0.854567   -1.200236
H      -0.590890    2.083217    0.630232
H      -0.003905    2.042466   -1.055873
H       2.283237   -0.256501   -0.204050
H       1.696224   -0.215727    1.482046
H      -1.412032   -0.803323    1.643297
H      -2.724609   -0.223750   -1.002587
H      -0.043793   -2.918329   -0.004152
H      -0.062072   -0.897030   -2.234269
