17

O      -0.004713   -0.032861    0.552156
C      -0.053859    1.066888    0.073521
C      -1.371513    1.829105   -0.060813
C      -1.703246    2.331197   -1.452610
O      -2.161191    3.687377   -1.550045
C      -0.870347    3.368469   -2.067025
C       0.353896    3.854152   -1.316871
C       1.381892    2.732859   -1.178838
O       1.119072    1.683739   -0.231559
H      -2.146231    1.154847    0.306951
H      -1.333743    2.689726    0.614109
H      -2.235260    1.633269   -2.097147
H      -0.802707    3.400933   -3.154963
H       0.832252    4.677070   -1.859896
H       0.069977    4.245868   -0.336668
H       1.548193    2.261450   -2.156714
H       2.338974    3.142880   -0.846648
