21

C      -0.689260    1.303229   -0.022501
C       0.098701   -0.003788   -0.075958
C       1.274010   -0.010961   -1.087744
C       2.231477   -1.011501   -0.488823
C       1.927318   -1.295509    0.776139
C       0.726577   -0.510426    1.265394
C       1.147405    0.603228    2.258454
C       1.638369    0.022091    3.563115
O       2.715136    0.229533    4.060181
H      -0.055411    2.152934    0.252302
H      -1.125862    1.525747   -1.001851
H      -1.513213    1.250734    0.697820
H      -0.588103   -0.798248   -0.393038
H       0.943516   -0.277805   -2.098108
H       1.746455    0.979354   -1.172296
H       3.078584   -1.413983   -1.033344
H       2.493031   -1.957045    1.423529
H       0.008210   -1.154922    1.790561
H       1.927329    1.246756    1.842526
H       0.270443    1.222022    2.495452
H       0.899899   -0.651027    4.062824
