16

C      -0.030103    1.486364    0.103543
C       1.358072    2.166009   -0.027890
C       2.162602    1.418468   -1.038974
C       1.984215    0.081088   -1.322442
C       0.930135   -0.687654   -0.686582
C       0.001765   -0.028965    0.021058
N       2.935778   -0.314916   -2.216200
N       3.693973    0.704005   -2.503512
N       3.232600    1.761017   -1.783531
H      -0.498916    1.807431    1.038690
H      -0.683090    1.856686   -0.701783
H       1.236188    3.223205   -0.284399
H       1.881477    2.135952    0.938941
H       0.920775   -1.766291   -0.794839
H      -0.807800   -0.567539    0.503277
H       3.696783    2.650811   -1.873744
