23

C      -0.366518    1.553542   -0.063050
C      -0.136403    0.048018   -0.158899
C       0.778789   -0.365542   -1.303412
O       1.341722    0.450542   -2.000938
C       0.913434   -1.853908   -1.554684
C      -0.005377   -2.426161   -2.691506
C       1.195928   -3.281571   -3.181967
C       1.423638   -3.436832   -4.677105
C       2.135300   -2.349410   -2.368182
H       0.581794    2.083451    0.054771
H      -0.838502    1.935047   -0.972448
H      -1.009537    1.795718    0.787816
H       0.307488   -0.344836    0.767584
H      -1.083276   -0.499435   -0.268360
H       0.766439   -2.416054   -0.627652
H      -0.919630   -2.941991   -2.388495
H      -0.258720   -1.644292   -3.414657
H       1.154611   -4.269091   -2.707741
H       1.470283   -2.459325   -5.169909
H       2.365393   -3.958381   -4.882084
H       0.616936   -4.011128   -5.146920
H       2.524021   -1.529448   -2.978519
H       2.957479   -2.806622   -1.812687
