19

C      -0.567013    1.500447    0.060873
C      -0.128421    0.061288   -0.004598
C       0.005863   -0.591804   -1.160696
C       0.415477   -2.028680   -1.315130
C       0.881398   -2.670714   -0.032589
O       1.992935   -2.056174    0.630779
C       0.700590   -1.990573    1.255688
C       0.137877   -0.587844    1.340416
O       1.011291    0.212941    2.140712
H       0.173863    2.109870    0.586742
H      -0.724737    1.915498   -0.937743
H      -1.503973    1.599845    0.624728
H      -0.207114   -0.062806   -2.087788
H      -0.426032   -2.616814   -1.710615
H       1.209764   -2.116326   -2.069772
H       0.927776   -3.760030   -0.037553
H       0.621886   -2.578530    2.169556
H      -0.802015   -0.622923    1.908682
H       1.885959    0.119504    1.741635
