21

C      -0.133739    1.527970    0.096538
C       0.146075    0.061618    0.015103
O      -0.753173   -0.819761    0.706112
C       0.651114   -0.929690    0.988122
C       1.290647   -1.788859   -0.123328
C       0.390713   -2.884661   -0.764722
C      -0.147584   -1.842531   -1.794594
C       0.771749   -0.743624   -1.172225
C       1.717349    0.022186   -2.070260
H       0.733819    2.115653   -0.218566
H      -0.976205    1.799286   -0.550526
H      -0.392385    1.806208    1.121843
H       0.942472   -0.828862    2.029153
H       2.358352   -1.981176   -0.006810
H       0.963862   -3.695562   -1.220245
H      -0.360954   -3.311791   -0.099090
H       0.109726   -2.072788   -2.832244
H      -1.218150   -1.640504   -1.731223
H       1.176049    0.724805   -2.715933
H       2.446442    0.599648   -1.489405
H       2.277969   -0.658631   -2.719693
