15

O      -0.049848    0.165978    0.930010
C      -0.017254    1.277931    0.455507
N      -1.153361    1.934125    0.016782
C      -1.138369    3.188221   -0.599307
N      -0.158433    3.989246   -0.640330
C       1.055141    3.580864    0.059112
C       1.242325    2.082655    0.212795
C       2.519058    1.490457    0.623777
O       2.105419    1.434392   -0.740733
H      -2.012680    1.403366    0.054711
H      -2.084676    3.457628   -1.066175
H       1.924624    3.985679   -0.467722
H       1.038369    4.051640    1.053782
H       3.358619    2.152907    0.830791
H       2.505318    0.541747    1.154097
