14

C      -0.051529    1.530084    0.060169
C      -0.006020    0.018594    0.044549
C       1.299150   -0.703127   -0.280183
C       0.778165   -0.733237    1.116744
C      -1.233934   -0.665062   -0.428143
O      -2.238651   -0.104166   -0.790776
H       0.893624    1.945445    0.421468
H      -0.240986    1.923418   -0.942860
H      -0.856639    1.887821    0.708625
H       1.245646   -1.612475   -0.869892
H       2.148685   -0.069778   -0.509101
H       1.261539   -0.121049    1.869618
H       0.364554   -1.663398    1.492592
H      -1.165113   -1.779860   -0.426520
