21

C      -0.466830    1.416949    0.085195
C      -0.174914   -0.088342    0.145059
C       0.453630   -0.577345   -1.191209
C       1.936479   -0.557299   -0.909315
C       2.192542   -0.476780    0.393728
C       0.922645   -0.459281    1.211828
C       0.956043    0.462510    2.426015
C      -0.113693    0.227069    3.479532
O       1.796796    1.323591    2.553194
H       0.448712    1.985882   -0.103047
H      -1.175034    1.630909   -0.721512
H      -0.905065    1.790999    1.015680
H      -1.106020   -0.622120    0.358291
H       0.119206   -1.592807   -1.447470
H       0.166734    0.063582   -2.033426
H       2.683880   -0.629140   -1.691667
H       3.172162   -0.453003    0.854006
H       0.704531   -1.472400    1.586874
H       0.103495   -0.706083    4.013715
H      -0.123282    1.051381    4.193680
H      -1.102534    0.107455    3.024531
