18

C       0.114798    1.537621    0.057048
C       0.070811    0.082797    0.047527
C       0.031700   -1.121289    0.042023
C       0.006551   -2.574598    0.025207
N       0.205873   -3.234504    1.327950
C      -1.030389   -3.831620    1.385914
O      -1.577383   -4.498509    2.222213
C      -1.403789   -3.290632   -0.017157
C      -2.663073   -2.443722   -0.096739
H       1.104944    1.908609   -0.229163
H      -0.613590    1.959200   -0.644215
H      -0.115423    1.934019    1.051899
H       0.695512   -2.951025   -0.740006
H       0.921973   -3.104712    2.028068
H      -1.418868   -4.089496   -0.764221
H      -2.634892   -1.621190    0.622663
H      -2.789966   -2.016105   -1.095759
H      -3.535982   -3.064002    0.126519
