15

C       0.032024    1.423964   -0.074252
O       0.012271   -0.002106   -0.015855
C       0.584707   -0.666487   -1.020487
C       0.712437   -2.002074   -1.229229
C       1.422200   -2.126212   -2.482999
C       1.659260   -0.855199   -2.918817
O       1.148251    0.049056   -2.026503
C       1.798582   -3.324149   -3.133312
C       2.110834   -4.354555   -3.672350
H       1.057991    1.805348   -0.084722
H      -0.495168    1.790980   -0.960579
H      -0.479601    1.760517    0.827487
H       0.359488   -2.796027   -0.594741
H       2.146225   -0.445412   -3.785747
H       2.389080   -5.259204   -4.152862
