23

C      -0.055498    1.550063    0.284236
C      -0.074125    0.068013   -0.130494
C      -1.438973   -0.551038   -0.075111
C      -2.140105   -1.043860   -1.099838
C      -3.496428   -1.559121   -0.689368
C      -3.382966   -1.615314    0.861547
C      -2.226620   -0.658702    1.214983
O      -4.546673   -1.228688    1.562610
C      -5.596707   -2.162693    1.479284
H       0.959202    1.956089    0.229419
H      -0.696756    2.147036   -0.371943
H      -0.412506    1.682625    1.310387
H       0.329399   -0.034165   -1.144333
H       0.603579   -0.488591    0.532974
H      -1.797437   -1.053647   -2.129922
H      -4.297252   -0.862243   -0.977011
H      -3.743637   -2.529123   -1.135393
H      -3.108420   -2.642154    1.154814
H      -1.626740   -1.019535    2.058556
H      -2.643204    0.311531    1.517092
H      -6.414517   -1.789125    2.100779
H      -5.966768   -2.286215    0.450373
H      -5.290701   -3.152992    1.853861
