17

C      -0.110987    1.423139    0.076510
N       0.219927    0.013247   -0.010679
C       0.019359   -0.791380    1.186107
C       0.123107   -0.575771   -1.236044
C      -0.049991   -0.065535   -2.499269
C       0.009920   -1.226741   -3.307136
O      -0.105261   -1.235436   -4.645515
N       0.185465   -2.339108   -2.634688
O       0.254748   -1.913068   -1.281846
H       0.244469    1.811526    1.034100
H       0.393834    1.974218   -0.721039
H      -1.192787    1.613699    0.002725
H      -1.045664   -0.924184    1.429680
H       0.467702   -1.774578    1.048155
H       0.508628   -0.297258    2.029956
H      -0.204447    0.950265   -2.812744
H      -0.035568   -2.155647   -4.933391
