17

O      -0.112343    1.538981    0.281454
C       0.021569    0.137534    0.272476
C      -1.309473   -0.553957   -0.066877
C      -1.828687   -0.246364   -1.463954
O      -1.614014    0.773165   -2.077339
C      -2.617397   -1.448625   -1.985124
C      -2.116314   -2.654497   -1.169621
C      -1.310779   -2.080779    0.008365
O      -0.744475   -2.735868    0.843118
H      -0.437541    1.784937   -0.595395
H       0.790882   -0.198006   -0.441096
H       0.342290   -0.175784    1.269169
H      -2.068558   -0.194033    0.646292
H      -3.680086   -1.250313   -1.798209
H      -2.496727   -1.541741   -3.066186
H      -2.914123   -3.298364   -0.790006
H      -1.445865   -3.298683   -1.748560
