18

C       0.046318    1.454115   -0.218545
C       0.029760   -0.024951    0.169150
O       0.747475   -0.269562    1.376039
C      -1.373755   -0.560146    0.268890
C      -2.425133   -0.323532    1.373639
C      -3.040138   -1.723089    1.015140
C      -1.958697   -1.870257   -0.062428
O      -2.098747   -0.751579   -0.953856
H       1.075947    1.813687   -0.294471
H      -0.455635    1.604971   -1.178359
H      -0.476868    2.059658    0.532379
H       0.548922   -0.606132   -0.601304
H       0.458650    0.380604    2.025399
H      -1.996901   -0.309081    2.378791
H      -3.065025    0.550155    1.230294
H      -2.939498   -2.444519    1.829021
H      -4.067078   -1.729139    0.643016
H      -1.505268   -2.767855   -0.467907
