16

N       0.031702    1.250289   -0.422244
C       0.113128    0.044071   -0.010705
C      -1.092750   -0.772806   -0.047731
N      -2.017838   -1.464378   -0.085604
N       1.181783   -0.609457    0.590160
C       2.614891   -0.423168    0.126224
C       2.945273   -1.690096    0.961144
C       1.651032   -1.995376    0.162852
C       2.323398   -1.357285   -1.087363
H       0.939128    1.716087   -0.353898
H       3.103369    0.550347    0.149990
H       3.837292   -2.242089    0.665804
H       2.832240   -1.596516    2.040767
H       0.988397   -2.856523    0.228636
H       1.656243   -0.962098   -1.854807
H       3.175158   -1.888246   -1.518193
