14

N      -0.188807    1.404377    0.154297
C       0.085923   -0.011752   -0.064290
C       0.836755   -0.551573    1.196164
O       0.141292   -0.152731    2.351954
C       0.937957   -2.010265    1.142334
C       1.007016   -3.204515    1.050162
C       2.208535    0.042102    1.195194
N       3.240526    0.561348    1.167534
H       0.604647    1.980005   -0.107675
H      -0.990366    1.713026   -0.381195
H      -0.861378   -0.553867   -0.113237
H       0.667929   -0.243660   -0.964781
H      -0.200353    0.731004    2.118831
H       1.075757   -4.263122    0.988662
