21

C      -0.702057    1.196837    0.018434
C      -0.019846   -0.157164   -0.176450
C       1.079914   -0.188423   -1.233613
C       2.433009    0.396078   -0.852912
C       2.150483   -1.072482   -0.671116
O       1.776827   -1.532319    0.604594
C       0.707856   -0.719109    1.055714
C       0.939143    0.051870    2.332389
C       0.040257   -1.172552    2.309072
H       0.025636    1.978908    0.254125
H      -1.227785    1.493114   -0.894490
H      -1.441733    1.164110    0.826069
H      -0.780845   -0.889198   -0.480959
H       0.792841   -0.221036   -2.278348
H       3.093192    0.676858   -1.666630
H       2.511443    1.023551    0.028081
H       2.685580   -1.828103   -1.233173
H       1.915903   -0.061673    2.788941
H       0.482304    1.026321    2.463501
H      -1.031531   -1.027339    2.400816
H       0.415659   -2.083259    2.761896
