20

O      -0.141189    0.211092   -0.803310
C      -0.047818    1.264314   -0.208553
N       1.097423    1.778458    0.313954
C       2.397017    1.126238    0.217787
C       3.376193    1.924477   -0.655861
C       4.694789    1.158506   -0.840429
C       5.190011    0.563645    0.451671
C       4.437624    0.451027    1.545246
C       2.994058    0.878513    1.612547
H      -0.914778    1.930453   -0.023920
H       1.044129    2.672792    0.777465
H       2.197528    0.164427   -0.263052
H       2.914816    2.139456   -1.624629
H       3.579546    2.890781   -0.173777
H       4.563345    0.359746   -1.585164
H       5.458121    1.824761   -1.261228
H       6.218697    0.211598    0.468790
H       4.860519    0.023814    2.451243
H       2.906495    1.793597    2.220254
H       2.397165    0.122109    2.136271
