17

C      -0.077500    1.349382    0.062896
N      -0.061181   -0.105697    0.045775
C       0.520416   -0.704311    0.986797
N       1.313293   -0.284649    2.109426
C       1.641031   -1.676797    2.448085
C       0.406716   -2.491833    2.669782
O      -0.670381   -1.931284    3.357000
C       0.767054   -2.156912    1.241561
O       0.892379   -3.147135    0.304203
H       0.690866    1.790362    0.712669
H       0.067926    1.722183   -0.955913
H      -1.059837    1.706938    0.395835
H       0.822073    0.237641    2.829869
H       2.638679   -1.951546    2.765178
H       0.608920   -3.541811    2.892918
H      -1.484274   -2.214455    2.926503
H       1.276432   -2.754665   -0.489138
