17

C      -0.708989    1.335304    0.287668
C      -0.029413    0.022923   -0.079899
C       0.992086   -0.006821   -1.268873
C       1.972954   -0.851957   -0.403049
O       3.307819   -0.417908   -0.397684
C       1.109550   -0.474997    0.790225
N       1.311838   -0.358803    2.034123
O       2.599538   -0.865276    2.365987
H       0.029767    2.131633    0.420372
H      -1.407945    1.642659   -0.497000
H      -1.267588    1.237253    1.223208
H      -0.780474   -0.767096   -0.203945
H       0.654555   -0.444534   -2.209112
H       1.423147    0.980210   -1.451864
H       1.891219   -1.926677   -0.632955
H       3.650432   -0.604440    0.485341
H       2.669568   -0.652249    3.302205
