17

C      -0.147940    1.510293   -0.084756
N       0.119207    0.086906    0.004917
C       0.790911   -0.543947   -1.152996
C       1.363517   -1.873216   -0.591719
N       1.486819   -1.507385    0.808044
N       2.043436   -2.086500    1.899219
N       1.705688   -1.333485    2.907447
C       0.915269   -0.291420    2.490633
C       0.763993   -0.416342    1.127607
H       0.769860    2.111469   -0.193783
H      -0.794976    1.704078   -0.944730
H      -0.674601    1.838850    0.814384
H       0.088380   -0.701217   -1.975077
H       1.611594    0.095512   -1.515400
H       0.665472   -2.708825   -0.712121
H       2.324243   -2.144384   -1.031778
H       0.534215    0.441363    3.180522
