25

C       0.084717    1.557576    0.106321
C       0.029825    0.029991    0.070916
O       0.679337   -0.532724    1.211328
C      -1.402861   -0.499730   -0.082662
C      -1.468900   -2.026310   -0.200079
C      -2.890492   -2.612239   -0.181353
C      -3.744379   -2.162757   -1.374503
C      -2.820984   -4.139020   -0.111599
O      -4.137281   -4.647659    0.059355
H       1.115072    1.898130    0.239791
H      -0.309190    1.991272   -0.818627
H      -0.515425    1.948691    0.937912
H       0.628356   -0.327176   -0.777279
H       0.214407   -0.215193    1.993930
H      -1.991659   -0.168513    0.787149
H      -1.859502   -0.023684   -0.958538
H      -0.961655   -2.336477   -1.125425
H      -0.885989   -2.452554    0.624490
H      -3.387821   -2.281784    0.742121
H      -4.713283   -2.666491   -1.357499
H      -3.920696   -1.083369   -1.364927
H      -3.248840   -2.412412   -2.321405
H      -2.363192   -4.528174   -1.036943
H      -2.172159   -4.439324    0.726631
H      -4.094911   -5.607472    0.030931
