14

O       0.144797    1.344883    0.260827
C       0.043648   -0.041443    0.073875
C      -1.386751   -0.479196   -0.019799
N      -2.371532    0.317826    0.062004
C      -3.585640   -0.500074   -0.077130
C      -3.054711   -1.948225   -0.256753
O      -1.612974   -1.799993   -0.201395
H      -0.764077    1.678311    0.282594
H       0.563507   -0.355637   -0.844572
H       0.520286   -0.587987    0.902487
H      -4.215515   -0.392037    0.811691
H      -4.171998   -0.159243   -0.936457
H      -3.356619   -2.629296    0.543083
H      -3.313025   -2.394585   -1.220482
