18

C      -0.176326    1.513899   -0.090557
C       0.021632    0.020084    0.007414
C      -1.180210   -0.902895    0.329810
O      -0.415782   -1.620588    1.327855
C       0.729466   -0.774072    1.149899
C       1.735770   -1.323587    0.109865
N       0.985937   -0.593479   -0.920938
C       1.037294   -0.702010   -2.268762
O       1.844122   -1.376541   -2.874695
H       0.784999    2.034416   -0.121722
H      -0.733109    1.778724   -0.996331
H      -0.745900    1.881163    0.768376
H      -2.036893   -0.387080    0.782473
H      -1.526736   -1.549084   -0.483714
H       1.105838   -0.351715    2.082991
H       2.767618   -0.972025    0.219049
H       1.725653   -2.410792   -0.003729
H       0.260216   -0.085276   -2.766489
