22

C      -1.606437   -0.412824   -0.566189
C      -0.138434   -0.158695   -0.197202
C       0.260734   -0.952608    1.053980
C       0.782385   -0.480849   -1.395936
O       0.394545    0.233757   -2.570176
C       2.253805   -0.248784   -1.111417
C       2.782585    1.145644   -0.909519
N       2.986129   -1.295637   -1.089766
O       4.331370   -0.982083   -0.831679
H      -1.885716    0.120088   -1.477514
H      -1.780274   -1.481411   -0.739879
H      -2.270815   -0.094579    0.243379
H      -0.023998    0.913884    0.027811
H       0.201132   -2.030415    0.864882
H       1.282173   -0.732149    1.375060
H      -0.413131   -0.721674    1.884941
H       0.669203   -1.538987   -1.651908
H       0.344029    1.169933   -2.348192
H       3.299820    1.223544    0.051786
H       3.521566    1.385456   -1.680432
H       1.989605    1.896263   -0.941107
H       4.749573   -1.848993   -0.861690
