23

C       0.067306    1.589364    0.039772
C       0.042766    0.059692    0.046006
C      -1.390339   -0.505543   -0.035089
C      -1.436175   -1.963844   -0.033841
C      -1.440771   -3.170248   -0.027444
C      -1.443872   -4.605102   -0.036018
C      -1.839890   -5.386469    1.211135
C      -2.747978   -5.397895    0.015702
C      -4.086266   -4.698679    0.047037
H       1.091641    1.969109    0.101088
H      -0.382202    1.990655   -0.875538
H      -0.491032    1.999383    0.888964
H       0.624746   -0.330376   -0.796518
H       0.522273   -0.322380    0.954145
H      -1.976883   -0.118522    0.809707
H      -1.879225   -0.117575   -0.939721
H      -0.654714   -5.052815   -0.634118
H      -1.266779   -6.275455    1.450648
H      -2.147890   -4.801494    2.070854
H      -2.728922   -6.309456   -0.576081
H      -4.025344   -3.760315    0.604924
H      -4.431508   -4.459261   -0.964555
H      -4.845415   -5.330329    0.521281
