18

O      -0.088759    1.465018    0.116827
C      -0.089382    0.065215    0.279775
C      -1.465393   -0.570600   -0.048218
C      -1.834137   -0.238702   -1.429824
N      -2.072085    0.004425   -2.535220
C      -1.454714   -2.088543    0.131848
O      -0.539353   -2.749322   -0.696258
C      -1.588027   -2.660033    1.509826
C      -2.720473   -2.810830    0.511394
H      -0.138954    1.659781   -0.825685
H       0.681275   -0.432013   -0.321752
H       0.127463   -0.128326    1.333861
H      -2.214362   -0.125441    0.615883
H      -0.883633   -2.730732   -1.598032
H      -0.987900   -3.536521    1.722364
H      -1.722238   -1.982354    2.345942
H      -3.627985   -2.236570    0.663193
H      -2.866915   -3.791121    0.072828
