17

C       0.116577    1.383758    0.048665
N      -0.009856   -0.064218    0.017288
C      -1.149264   -0.616519    0.028092
N      -1.268571   -2.014528   -0.002210
C      -0.140091   -2.916725   -0.047250
C      -2.595573   -2.353136    0.017415
C      -3.432234   -1.281102    0.059975
C      -2.610697   -0.085139    0.071002
O      -2.928151    1.089161    0.105233
H       0.726913    1.652534    0.919162
H       0.690053    1.693722   -0.833131
H      -0.831278    1.922257    0.081249
H       0.503184   -2.778406    0.827259
H      -0.509282   -3.944364   -0.063180
H       0.465508   -2.737456   -0.941031
H      -2.860919   -3.403166   -0.001754
H      -4.509342   -1.303498    0.081935
