17

C      -0.049209    1.542211   -0.013442
C       1.451547    1.888428   -0.023603
N       2.207462    1.441336    1.166377
C       2.269794    0.636332   -0.092379
C       1.260145   -0.438856   -0.105010
C      -0.028539    0.031529   -0.025649
C      -0.889409   -1.092386    0.076670
C      -0.079863   -2.211682    0.043434
N       1.234603   -1.804399   -0.058552
H      -0.537451    1.958704    0.874982
H      -0.549247    1.972942   -0.890515
H       1.778052    2.794450   -0.523822
H       3.053550    2.006690    1.232604
H       3.206016    0.581337   -0.638314
H      -1.966433   -1.104993    0.149635
H      -0.329999   -3.260663    0.057859
H       2.029212   -2.418798   -0.073699
