23

C       0.082434    1.557782   -0.007081
C      -0.007567    0.023124    0.053792
C       0.844013   -0.481369    1.231599
C      -1.473399   -0.530674    0.043416
C      -2.203974   -0.041977   -1.224431
C      -1.445279   -2.072513   -0.000929
C      -2.274731   -0.084142    1.281273
H       1.130756    1.869385   -0.063741
H      -0.428715    1.974716   -0.878211
H      -0.343354    2.023289    0.888534
H       0.456420   -0.362354   -0.866298
H       0.461033   -0.118121    2.191518
H       0.891692   -1.571984    1.279480
H       1.871095   -0.113743    1.135501
H      -1.637239   -0.289336   -2.129536
H      -3.185975   -0.520039   -1.308156
H      -2.369362    1.038838   -1.216297
H      -1.042240   -2.506073    0.918389
H      -2.457792   -2.469911   -0.130427
H      -0.838021   -2.434535   -0.838623
H      -2.358462    1.005254    1.342461
H      -3.292936   -0.486814    1.240079
H      -1.821755   -0.440575    2.211465
