19

C       0.341916    0.147144   -0.916511
N      -0.533686    1.224818   -0.421439
C       0.401916    0.572339    0.509241
C      -0.219921   -0.224743    1.592651
N      -1.610514   -0.722082    1.487231
C      -1.207659    0.143907    2.627781
C      -0.462416   -0.719780    3.687639
C      -0.317857   -2.156103    3.258369
C       0.556965   -1.106357    2.624744
H      -0.176058   -0.771055   -1.176218
H       1.172298    0.407529   -1.567046
H      -0.176011    2.132391   -0.704460
H       1.287561    1.132483    0.806613
H      -2.058477   -0.102314    0.808631
H      -1.705637    1.087425    2.810570
H      -0.279792   -0.384811    4.700125
H       0.193526   -2.789014    3.977435
H      -1.098693   -2.638122    2.684683
H       1.637083   -1.112361    2.698838
