17

O       0.265006    1.415914    0.095619
C       0.122420    0.026163    0.014846
C       0.677798   -0.611989   -1.256009
O      -0.463895   -0.612040   -2.153128
C      -1.698730   -0.793406   -1.425350
C      -1.286118   -0.630546    0.008793
C      -1.555923   -0.092083    1.432692
C      -0.111888   -0.699144    1.369988
O      -0.660353   -1.838492    0.622507
H       0.136234    1.782654   -0.786670
H       1.452548   -0.006648   -1.732845
H       1.045406   -1.627903   -1.093764
H      -2.415107   -0.033152   -1.755283
H      -2.115630   -1.788728   -1.619749
H      -1.654106    0.985858    1.554771
H      -2.261274   -0.673721    2.025904
H       0.577116   -0.911841    2.188186
