17

N      -0.676118    1.252389   -0.378874
C      -0.330336    0.061064   -0.146980
O      -1.264534   -0.894659    0.016830
C      -0.809787   -2.250646    0.113746
C      -1.907857   -3.058036    0.811484
C      -2.787390   -3.463192   -0.373861
O      -1.863695   -3.764514   -1.414760
C      -0.728409   -2.917940   -1.280364
H       0.147873    1.846594   -0.441897
H       0.699475   -0.309439   -0.038862
H       0.148124   -2.273292    0.644211
H      -1.471906   -3.946380    1.278076
H      -2.419423   -2.466106    1.571922
H      -3.392269   -4.355558   -0.194225
H      -3.453516   -2.636671   -0.662924
H      -0.719565   -2.144520   -2.059918
H       0.173506   -3.532087   -1.388087
