21

C      -0.229564    1.499599   -0.063703
C       0.139192    0.013693   -0.009993
N       0.813211   -0.470981   -1.208341
C       2.135675   -0.785555   -1.171314
O       2.799214   -1.208106   -2.099160
C       0.017305   -0.653467   -2.441591
C       0.521523    0.231822   -3.589345
C      -0.064759   -2.133619   -2.841117
H       0.666396    2.116889   -0.178865
H      -0.901087    1.717175   -0.899943
H      -0.738484    1.796747    0.858836
H       0.801555   -0.169228    0.842097
H      -0.761813   -0.589889    0.160427
H       2.570501   -0.612260   -0.165599
H      -0.991927   -0.319719   -2.177137
H      -0.143076    0.133065   -4.453515
H       0.539448    1.284576   -3.291546
H       1.529302   -0.063569   -3.884144
H      -0.460790   -2.738124   -2.019039
H      -0.731138   -2.251442   -3.701461
H       0.923860   -2.510713   -3.106885
