12

O       0.100117    1.326476    0.079300
C       0.073085   -0.013252    0.079572
N       0.067874   -0.717521   -1.035415
N       0.080297   -2.058529   -0.656452
C       0.023465   -2.142640    0.687907
C       0.047793   -0.863851    1.224240
N       0.043455   -0.955097    2.588491
N       0.015108   -2.201934    2.913782
N       0.009117   -2.970391    1.748961
H       0.114659    1.614153   -0.843314
H      -0.117570   -2.749484   -1.357068
H      -0.028077   -3.971987    1.826152
