18

C       0.063453    1.485507    0.201218
N       0.163827    0.047933    0.056216
C       0.416669   -0.549425   -1.131182
O       0.584609    0.038711   -2.187936
C       0.486960   -2.075913   -1.090608
O       0.262242   -2.525606    0.229304
C      -0.321377   -2.793024   -2.204604
O       0.861819   -3.434399   -2.718402
C       1.709834   -2.689334   -1.823398
H       0.820015    1.868334    0.895121
H       0.225299    1.927354   -0.782763
H      -0.926275    1.779421    0.567957
H       0.045083   -0.555295    0.854295
H       0.308377   -3.486732    0.244561
H      -1.064635   -3.510604   -1.833675
H      -0.776488   -2.117566   -2.935428
H       2.329705   -1.959056   -2.352486
H       2.335305   -3.337033   -1.195531
