23

C      -0.253193    1.778653    0.342694
C       0.000760    0.266532    0.277588
C      -1.292773   -0.516211    0.088222
C      -2.001947   -0.707709   -1.277979
C      -0.963258   -1.422590   -2.170778
C      -0.573055   -2.561175   -1.167788
C       0.912639   -2.810181   -0.913459
C      -1.442770   -2.062546    0.012504
O      -2.714976   -1.836568   -0.679593
H       0.679391    2.332314    0.487419
H      -0.716534    2.142907   -0.580731
H      -0.925033    2.031289    1.170128
H       0.711761    0.059477   -0.527346
H       0.486084   -0.061361    1.206145
H      -2.045328   -0.163165    0.800402
H      -2.653463    0.043350   -1.726168
H      -1.418549   -1.803345   -3.087408
H      -0.121222   -0.780342   -2.447749
H      -1.022372   -3.500628   -1.504674
H       1.443457   -1.921115   -0.565132
H       1.050855   -3.593489   -0.159505
H       1.407034   -3.150474   -1.829572
H      -1.523939   -2.692533    0.900133
