15

O      -0.215965    1.350357   -0.039758
N      -0.062408   -0.032702   -0.229866
C      -1.140119   -0.654582    0.075020
C      -2.507703   -0.193789    0.327730
C      -3.232652   -1.322238    0.526182
C      -3.883632   -2.061847   -0.631653
C      -2.541108   -2.858728   -0.526764
C      -1.271215   -2.144124    0.016542
N      -2.399412   -2.483915    0.902463
H       0.636939    1.690862   -0.329742
H      -2.886223    0.743279   -0.056855
H      -4.695767   -2.751037   -0.379162
H      -4.130471   -1.475721   -1.517092
H      -2.452024   -3.902344   -0.827182
H      -0.385725   -2.770870    0.072935
