15

N      -0.496311    1.674651   -0.256130
C       0.017014    0.321261   -0.123869
C      -1.053007   -0.607052    0.270392
N      -1.853596   -1.391230    0.552752
C       0.782132   -0.206751   -1.367163
N       1.211476    0.640553   -2.200778
N       0.975835   -1.596642   -1.383758
C       1.707618   -2.299349   -2.316374
O       2.319898   -1.811635   -3.237392
H       0.248107    2.224424   -0.681693
H      -1.245339    1.675583   -0.944502
H       0.746235    0.315060    0.700893
H       1.749300    0.190879   -2.942445
H       0.473197   -2.144341   -0.698029
H       1.673960   -3.386867   -2.121146
