15

C      -0.032775    1.488223    0.038608
C      -0.004809   -0.013504    0.011806
N      -0.025652   -0.616080   -1.145574
C      -0.001783   -2.001054   -1.240445
O      -0.018809   -2.624756   -2.280346
N       0.045811   -2.688949   -0.011229
C       0.068235   -2.078128    1.206152
C       0.043814   -0.722163    1.263188
O       0.061751    0.023572    2.410180
H       0.852208    1.879685    0.551883
H      -0.070061    1.869074   -0.981423
H      -0.900128    1.846260    0.603708
H       0.063087   -3.695623   -0.083146
H       0.105032   -2.719181    2.080621
H       0.093078   -0.557625    3.177176
