22

C       0.111836    1.427746   -0.315296
C       0.022926   -0.029122    0.164794
C       0.645665   -0.198098    1.558844
C      -1.414755   -0.554666    0.100078
C      -2.435152    0.102701    1.013347
C      -1.905741   -1.052360   -1.228678
C      -1.619001   -2.057919   -0.119166
C      -0.504535   -2.954251   -0.236316
N       0.393636   -3.679885   -0.321154
H       1.157038    1.747751   -0.368068
H      -0.328554    1.548956   -1.310185
H      -0.404323    2.111112    0.367517
H       0.613432   -0.639310   -0.529822
H       0.598766   -1.238570    1.893370
H       1.698864    0.098659    1.542687
H       0.141946    0.425721    2.305064
H      -2.523118    1.172296    0.798368
H      -3.426049   -0.340953    0.876398
H      -2.164727   -0.008240    2.067703
H      -2.946850   -0.910056   -1.497360
H      -1.217318   -1.043070   -2.066388
H      -2.479840   -2.502655    0.369530
