14

C       0.064184    1.481454   -0.002516
C      -0.071145    0.000809   -0.014247
C      -1.124596   -0.836979    0.189359
C      -0.622941   -2.176582    0.042601
N      -1.364411   -3.350143    0.248880
C       0.702845   -2.045006   -0.241702
O       1.050598   -0.716731   -0.272569
H       0.785417    1.812148    0.753569
H       0.409809    1.861738   -0.970703
H      -0.900570    1.942106    0.221067
H      -2.137507   -0.547504    0.425154
H      -2.307091   -3.279565   -0.112782
H      -0.920691   -4.168500   -0.147870
H       1.497621   -2.747306   -0.427009
