19

C      -0.263962    1.559349   -0.045180
C       0.034069    0.067835   -0.120506
C       0.754349   -0.564341   -1.321718
C       2.283862   -0.422499   -1.204778
C       2.873165    0.598720   -0.246675
O       2.233136    0.347718    1.014375
C       1.155251   -0.553587    0.784952
C       1.558031   -1.462847   -0.411686
O       1.706897   -2.831491   -0.450759
H      -0.962558    1.852871   -0.836609
H      -0.725559    1.812048    0.915621
H       0.635327    2.169648   -0.147285
H      -0.889651   -0.498925    0.050068
H       0.313573   -0.805369   -2.282605
H       2.845792   -0.734382   -2.077627
H       3.956054    0.458291   -0.127598
H       2.703516    1.638180   -0.556033
H       0.861670   -0.996845    1.735967
H       2.575619   -3.054442   -0.097185
