19

C       0.014086    1.345095    0.713183
C       0.010923   -0.018393    0.049202
C       0.916658   -0.260949   -1.131593
C       1.221193   -0.907494    0.199314
C      -1.340971   -0.699166    0.043806
C      -2.254428   -0.542934   -1.108910
O      -1.521601   -1.751400   -0.920866
C      -1.908357   -0.969706    1.347153
C      -2.354764   -1.176600    2.443846
H       1.021183    1.772013    0.707961
H      -0.649119    2.044123    0.190298
H      -0.320358    1.279529    1.753476
H       0.556347   -0.909252   -1.921046
H       1.538501    0.564823   -1.460415
H       2.055446   -0.533154    0.782752
H       1.056412   -1.976242    0.279615
H      -3.329011   -0.620812   -0.958019
H      -1.930177    0.074589   -1.945165
H      -2.756441   -1.368186    3.408258
