19

C      -0.038130    1.549133   -0.087155
C      -0.106802    0.043905    0.039230
C      -1.228105   -0.637182   -0.712567
O       1.191297   -0.628813   -0.078999
C       0.548502   -0.631928    1.154965
C       1.135060   -0.280499    2.534990
C      -0.170479   -0.817913    3.173178
C       0.293438   -1.826779    2.092670
O       1.682666   -1.660571    2.592916
H       0.821530    1.948278    0.455471
H       0.055059    1.838682   -1.139519
H      -0.948764    2.013024    0.307360
H      -1.165840   -0.404654   -1.781233
H      -1.176019   -1.721647   -0.594260
H      -2.202802   -0.290915   -0.351797
H       1.784845    0.535328    2.848097
H      -0.045510   -1.177955    4.194047
H      -1.100678   -0.266116    3.014117
H      -0.051341   -2.838229    1.883078
