16

O       0.087223    0.010682   -0.162817
C       0.023544    1.180860    0.058199
C      -1.101180    2.239504    0.047276
C      -1.373345    2.823787    1.440110
C      -0.066737    3.150735    2.143389
O       0.781016    2.041868    2.467367
C       1.187672    2.924736    1.409580
C       1.014664    2.368836    0.004736
N      -0.106069    3.146080   -0.649264
H      -2.017546    2.016087   -0.503244
H      -1.953260    3.745894    1.323786
H      -1.965915    2.126231    2.042733
H      -0.103703    3.920349    2.912456
H       2.071628    3.520732    1.623623
H       1.941471    2.275759   -0.562721
H      -0.109382    2.918876   -1.642408
