18

C      -0.037922    1.515164    0.019909
C       0.047393    0.017387   -0.007406
C      -0.822321   -0.885637    0.803314
C       0.682071   -0.959517    1.028424
C       1.266779   -1.734156   -0.088702
N       2.022828   -2.749956   -0.132333
O       2.282613   -3.077992   -1.493578
C       0.691973   -0.792850   -1.146920
O      -0.186338   -1.316090   -2.112223
H       0.917315    1.976302   -0.253980
H      -0.796754    1.874940   -0.684506
H      -0.314019    1.876454    1.015659
H      -1.369031   -0.401968    1.607294
H      -1.343187   -1.716147    0.338540
H       1.135001   -0.753654    1.989658
H       2.845470   -3.854313   -1.410589
H       1.513124   -0.221605   -1.608863
H       0.288207   -2.033639   -2.548486
