21

C       0.014159    1.494304    0.127758
C       1.450826    2.020238   -0.020573
C       2.211456    1.246120   -1.101496
C       1.327153    0.576635   -2.228551
C       2.397326   -0.185371   -3.010401
C       3.148382   -0.739171   -2.052240
C       2.474221   -0.268837   -0.765278
C       0.957880   -0.492040   -1.123078
C      -0.029448   -0.032298   -0.046026
H      -0.425323    1.799412    1.082806
H      -0.604212    1.949968   -0.654416
H       1.434874    3.089547   -0.261843
H       1.999773    1.929702    0.926805
H       3.087382    1.794939   -1.459120
H       0.569413    1.130045   -2.785223
H       2.489063   -0.238069   -4.086140
H       4.023245   -1.369287   -2.128377
H       2.886173   -0.577910    0.197786
H       0.717940   -1.490421   -1.499918
H       0.218666   -0.540008    0.896171
H      -1.046177   -0.350656   -0.304477
