20

C      -0.256801    1.523599   -0.068893
C       0.055683    0.030328    0.003922
C       0.906432   -0.497411   -1.175965
C       1.366816   -1.886469   -0.715297
C       1.485679   -1.767703    0.807713
O       2.033937   -2.555431    1.535692
C       0.816335   -0.458066    1.263402
C       1.901747    0.492103    1.802161
H       0.656150    2.127265   -0.086723
H      -0.821457    1.754198   -0.978651
H      -0.858304    1.851524    0.785656
H      -0.898776   -0.514589   -0.020275
H       0.345313   -0.514514   -2.114258
H       1.773162    0.156944   -1.331853
H       0.602292   -2.646592   -0.925738
H       2.300769   -2.245809   -1.153706
H       0.131487   -0.688299    2.086468
H       2.617316    0.781712    1.025071
H       1.459499    1.405642    2.208582
H       2.458650   -0.007996    2.598922
