14

C      -0.050287   -1.216534    0.048005
C      -0.044243   -0.015620    0.014464
C      -0.016792    1.438844   -0.004052
C       1.437310    2.018480   -0.061667
C       2.120693    1.641440   -1.301393
C       2.668237    1.327695   -2.322528
C       1.405830    3.473342    0.113815
C       1.345038    4.661926    0.273325
H      -0.063400   -2.278094    0.067220
H      -0.575625    1.824475   -0.862945
H      -0.497822    1.837887    0.895513
H       1.988101    1.579873    0.781519
H       3.157966    1.049778   -3.222902
H       1.308230    5.714710    0.408524
