20

C      -0.139500    1.375704    0.014836
O       0.012633   -0.028949   -0.005926
C       0.643236   -0.560899   -1.153348
C       2.074378   -0.059094   -1.339109
C       0.547370   -2.070171   -1.244952
C      -0.761793   -2.436012   -1.857688
C      -1.544177   -1.167599   -2.148774
C      -0.159848   -0.588258   -2.487622
N       0.384820   -2.032014   -2.744917
H       0.816477    1.902611    0.137811
H      -0.627277    1.751871   -0.896960
H      -0.776397    1.611247    0.870970
H       2.659313   -0.240430   -0.431792
H       2.548559   -0.582318   -2.172889
H       2.101325    1.012899   -1.555716
H       1.194554   -2.799605   -0.770402
H      -1.122741   -3.458472   -1.845913
H      -2.155510   -1.284694   -3.046972
H      -2.120955   -0.699308   -1.347643
H      -0.019267    0.174992   -3.251338
