20

C       3.015104   -0.705937    0.445508
N       1.621271   -1.128474    0.431363
C       1.219403   -2.204685    1.321234
C       0.741315   -0.809325    1.558659
C       1.220269   -0.045967    2.759517
O       1.212722    1.392142    2.549954
C       0.306349    1.607657    3.648346
C       0.234918    0.093483    3.948966
O      -0.996274   -0.547739    3.716646
H       3.544992   -0.892906    1.392611
H       3.547939   -1.246859   -0.343168
H       3.069068    0.364763    0.227820
H       0.547042   -2.953107    0.910477
H       1.964443   -2.597384    2.014643
H      -0.269054   -0.551215    1.254718
H       2.217230   -0.379884    3.069254
H       0.747696    2.236634    4.431996
H      -0.648120    2.040073    3.322644
H       0.661303   -0.199987    4.916208
H      -1.572728   -0.382874    4.469139
