21

C       0.903563   -0.448470   -0.878541
O      -0.071086    0.014501    0.030892
C      -1.328766   -0.559856   -0.084532
C      -2.207839   -0.568112   -1.391076
C      -3.018675   -1.589326   -0.522945
C      -1.635375   -2.101953    0.004005
C      -3.453477   -0.690693    0.643507
C      -2.343137   -0.008240    0.938179
C      -2.025307    1.032407    1.951905
H       1.825322    0.095106   -0.658756
H       1.093023   -1.525056   -0.765110
H       0.618338   -0.252516   -1.921637
H      -2.703673    0.364423   -1.669245
H      -1.717472   -1.029374   -2.254736
H      -3.743650   -2.266300   -0.969767
H      -1.091398   -2.706881   -0.728991
H      -1.610968   -2.563315    0.993650
H      -4.434011   -0.644716    1.096425
H      -2.899182    1.265725    2.566691
H      -1.212397    0.707459    2.612283
H      -1.678466    1.957193    1.475480
