21

C      -0.216260    1.379245    0.051587
O      -0.194973   -0.045445    0.199934
C       0.808649   -0.531874    0.961788
O       1.629783    0.170383    1.499485
C       0.780742   -2.044330    0.999502
C       1.718522   -2.652889   -0.076679
C       1.980242   -4.067778    0.454741
C       2.188119   -3.851513    1.966269
C       1.287577   -2.640416    2.339900
H       0.705834    1.733607   -0.416448
H      -1.075221    1.599675   -0.582566
H      -0.323244    1.867298    1.023723
H      -0.241523   -2.370296    0.789673
H       1.280149   -2.627464   -1.077765
H       2.655935   -2.084206   -0.104160
H       1.099034   -4.696610    0.276549
H       2.831131   -4.555273   -0.029905
H       1.953336   -4.743924    2.552476
H       3.237814   -3.610047    2.163507
H       1.851496   -1.882063    2.886888
H       0.444382   -2.937273    2.969417
