16

C      -0.065011    1.509863   -0.019966
O       1.224646    2.119035    0.200512
C       2.055403    1.521124    1.082302
N       2.073881    0.322107    1.492278
C       1.120402   -0.578920    0.909808
C       0.023782   -1.184191    1.802734
O      -0.890046   -0.147009    2.169013
C      -1.026670   -0.731992    0.871863
C      -0.006502   -0.015098   -0.037568
H      -0.718927    1.842482    0.791088
H      -0.417803    1.930768   -0.963435
H       2.806464    2.231605    1.424366
H       1.660176   -1.390537    0.409085
H       0.081741   -2.044568    2.458893
H      -1.983925   -1.171209    0.617193
H       0.056332   -0.423640   -1.047306
