19

C       0.153825    1.592771   -0.208964
C       0.024249    0.095632    0.065971
O       0.501124   -0.627309   -1.075757
C       1.392838   -1.662011   -0.683378
C       1.581303   -1.472777    0.791966
C       0.824274   -0.467264    1.227642
C       0.693004   -0.025098    2.631333
C       0.825526    1.376077    3.078803
O      -0.456591    0.764032    2.974221
H       1.204418    1.893083   -0.269406
H      -0.322710    1.821675   -1.166164
H      -0.349500    2.169993    0.570920
H      -1.043510   -0.133073    0.219183
H       0.963999   -2.651831   -0.915862
H       2.330359   -1.578312   -1.254353
H       2.228382   -2.099007    1.394530
H       0.937382   -0.788684    3.370464
H       1.169281    1.571103    4.093969
H       1.036737    2.159488    2.355454
