14

O      -0.034122   -0.044706    0.004024
C       0.027681    1.158551    0.008445
C      -1.205192    2.115535    0.031669
C      -0.688292    3.591711    0.031960
C       0.775281    3.347888    0.010069
C       1.189104    2.059043   -0.002610
N       2.581130    2.016038   -0.021895
C       2.908246    3.263354   -0.020055
O       1.853663    4.157642   -0.000811
H      -1.830829    1.900272   -0.838653
H      -1.805223    1.890933    0.917531
H      -1.033691    4.156772   -0.840553
H      -1.008810    4.147648    0.919697
H       3.893022    3.703845   -0.031373
