21

C      -0.055215    1.568452   -0.050713
C       0.027600    0.038891   -0.029402
C       0.737684   -0.525106    1.211785
C       0.688327   -2.057552    1.341817
C       1.372117   -2.940372    0.327579
C       2.086668   -2.583821    1.609661
C       3.009945   -1.387355    1.545950
O       3.043292   -0.723853    0.271145
C       2.221369   -0.168355    1.310107
H       0.940110    2.024634   -0.065961
H      -0.591660    1.921175   -0.936933
H      -0.582965    1.951510    0.830431
H      -0.984054   -0.382429   -0.074282
H       0.551043   -0.316115   -0.923740
H       0.256724   -0.103645    2.106704
H      -0.165354   -2.477006    1.863690
H       0.998153   -3.954548    0.235921
H       1.752774   -2.505813   -0.587573
H       2.289389   -3.345206    2.353282
H       3.952571   -1.394607    2.086330
H       2.526380    0.818299    1.652609
