19

C       0.041383    1.422060   -0.066375
C       1.368736    0.711671    0.006332
C       1.968621    0.517889    1.382325
O       0.892402    0.057729    2.205754
C      -0.012901   -0.697613    1.394638
C       0.073775   -0.082677    0.014381
C       0.058003   -0.840465   -1.295687
O       1.006783   -0.172694   -2.133499
C       2.039536    0.375028   -1.307999
H      -0.284439    1.962166    0.816205
H      -0.236123    1.864822   -1.017045
H       2.783461   -0.223952    1.335049
H       2.357165    1.426259    1.853510
H       0.278698   -1.760421    1.350606
H      -0.994425   -0.629676    1.874338
H       0.343902   -1.891833   -1.124178
H      -0.896772   -0.826390   -1.830779
H       2.454829    1.229511   -1.851606
H       2.848697   -0.355365   -1.139736
