19

C      -0.060363    1.500352   -0.064325
C       0.066707   -0.008611    0.051835
O       0.926275   -0.562551   -0.983931
C       1.917029   -1.284993   -0.210600
C       2.286790   -0.321569    0.930942
C       0.785350   -0.573232    1.297004
O       0.228386   -0.351666    2.547553
C       1.031952   -2.044558    0.804827
O      -0.014757   -2.829832    0.325127
H       0.900857    2.008434    0.050642
H      -0.467804    1.769367   -1.043042
H      -0.753780    1.879249    0.696069
H      -0.929993   -0.461552   -0.028904
H       2.632008   -1.757949   -0.879591
H       2.966803   -0.760663    1.662724
H       2.605953    0.682424    0.650969
H       0.159614    0.598218    2.694499
H       1.593900   -2.619332    1.543230
H      -0.231235   -2.492580   -0.553701
