17

O      -0.107015    1.446412    0.040977
C       0.004446    0.027061    0.010661
C      -1.423721   -0.520979   -0.024872
O      -1.409983   -1.910172   -0.288423
C      -0.945282   -2.219553   -1.583351
C       0.322991   -1.471495   -1.959338
C       0.756302   -0.452346   -1.204128
C       0.979643   -1.901242   -3.143234
C       1.490444   -2.314403   -4.153465
H       0.771284    1.816738    0.172986
H       0.503726   -0.336527    0.923918
H      -1.919712   -0.384121    0.938409
H      -1.989133    0.032666   -0.790515
H      -0.760309   -3.298254   -1.600237
H      -1.720871   -2.009140   -2.340566
H       1.667501    0.076563   -1.471930
H       1.954220   -2.661778   -5.043320
