18

C       0.024637    1.616242   -0.024404
C       0.019310    0.087328    0.000437
C       0.750458   -0.560444   -1.216688
C       2.034391   -1.134464   -0.600137
O       1.654382   -1.530173    0.706946
C       0.831418   -0.496839    1.208728
C      -1.397002   -0.452700    0.074880
O      -2.399157    0.213511    0.091399
H       1.045034    1.995813   -0.137002
H      -0.582734    1.994457   -0.850283
H      -0.393757    2.025594    0.899795
H       0.153492   -1.373543   -1.643520
H       0.936469    0.168724   -2.008450
H       2.425237   -2.012335   -1.119902
H       2.826663   -0.368629   -0.563170
H       1.433229    0.310750    1.653953
H       0.201584   -0.924451    1.995755
H      -1.444903   -1.566645    0.123193
