17

O      -0.063570    0.033093    0.195972
C       0.087488    1.166374   -0.180921
C       1.382346    1.918313   -0.054801
C       1.478955    2.854713    1.185324
C       2.553164    3.866735    0.683341
C       2.823787    3.302627   -0.723964
O       3.613236    2.122930   -0.609448
C       2.692688    1.111708   -0.164581
O       1.548405    2.845352   -1.141427
H      -0.737277    1.758917   -0.633329
H       0.519676    3.343543    1.372381
H       1.768880    2.309621    2.085280
H       2.160686    4.884898    0.631513
H       3.460840    3.868225    1.288946
H       3.264834    3.969306   -1.463940
H       3.015123    0.687182    0.790439
H       2.623189    0.314091   -0.910916
