17

C       0.351689   -1.132381   -1.100641
C      -0.472807   -0.379841   -0.093623
C      -0.923213   -1.061859    1.168894
O       0.209151   -1.434372    1.980606
C       0.560826   -2.746932    1.970397
N       1.636478   -2.935795    2.785919
O       0.022975   -3.611857    1.316295
N      -0.858338    0.833227   -0.216876
O      -0.425365    1.395586   -1.423156
H       1.377810   -0.748516   -1.118870
H       0.377439   -2.197020   -0.864825
H      -0.055268   -0.984182   -2.104904
H      -1.521316   -0.372370    1.765693
H      -1.492937   -1.966569    0.940637
H       1.891825   -2.213709    3.437280
H       1.877804   -3.887236    3.001114
H      -0.803402    2.280488   -1.382649
