18

O      -0.733177    0.951819   -0.668783
C       0.065280    1.110698    0.221412
C       1.337999    1.883948    0.089937
C       2.657403    1.439467    0.735494
C       2.956992    2.946915    0.625115
C       3.082339    3.135256   -0.905745
C       1.602416    2.795319   -1.175056
C       0.931389    3.907015   -0.346980
N       1.448576    3.210583    0.882802
H      -0.104063    0.684268    1.235667
H       2.486420    1.119535    1.765715
H       3.305214    0.736620    0.207783
H       3.656238    3.456990    1.285570
H       3.341039    4.149506   -1.220724
H       3.799529    2.439117   -1.347908
H       1.287270    2.518424   -2.179389
H       1.267540    4.939305   -0.486163
H      -0.160199    3.866650   -0.337895
