14

N       0.056476    1.395302    0.137918
C      -0.032203    0.031861    0.050372
C      -1.191686   -0.689677    0.028630
C      -1.185592   -2.136770   -0.007766
O      -2.159537   -2.874057   -0.025719
N       0.105935   -2.674628   -0.024719
N       1.275421   -2.003057   -0.019224
C       1.206383   -0.718085    0.018530
O       2.349967    0.014888    0.018864
H       0.940157    1.811670   -0.106282
H      -0.762924    1.937174   -0.082187
H      -2.162724   -0.209378    0.043343
H       0.184050   -3.680520   -0.054854
H       3.087739   -0.608217   -0.018294
