18

C      -0.022441    1.499560   -0.016822
C       0.217723   -0.000413    0.028596
O       0.898446   -0.527636    0.889758
N      -0.369837   -0.708853   -0.982646
C      -0.249988   -2.153283   -1.090622
C      -1.654171   -2.784281   -1.191610
O      -2.354695   -2.292548   -2.319900
C       0.546220   -2.549510   -2.259762
C       1.128756   -2.892201   -3.254615
H       0.888677    1.991402   -0.371576
H      -0.850348    1.788570   -0.669358
H      -0.215641    1.854044    0.997322
H      -0.974927   -0.258030   -1.650053
H       0.245802   -2.484082   -0.171700
H      -1.564202   -3.879120   -1.208001
H      -2.236123   -2.492839   -0.313023
H      -1.873957   -2.590747   -3.101976
H       1.684959   -3.188831   -4.109809
