15

O      -0.049742    1.327492   -0.075290
C      -0.000735   -0.018113   -0.048270
N       1.172763   -0.538522   -0.113170
C       1.531402   -1.858046   -0.107131
C       0.765698   -2.975890   -0.031208
C      -0.660002   -3.045094    0.064591
C      -1.564955   -2.038151    0.101055
C      -1.380112   -0.596766    0.054986
N      -2.428520    0.148016    0.105918
H       0.871680    1.620376   -0.142185
H       2.608477   -1.992732   -0.175135
H       1.296344   -3.923118   -0.044703
H      -1.069377   -4.051027    0.114894
H      -2.615984   -2.300768    0.176556
H      -2.167567    1.132871    0.065701
