18

C       0.029975    1.524057    0.050716
C       0.188650    0.016160    0.110183
O       0.541192   -0.441644   -1.193814
C       0.690618   -1.830286   -1.303848
C       0.762036   -2.185667   -2.804461
C      -0.498949   -1.931580   -3.485975
C      -1.547133   -1.739657   -4.039862
C       1.913666   -2.301109   -0.608078
N       2.866561   -2.660271   -0.062062
H       0.967553    1.996938   -0.253668
H      -0.746232    1.801124   -0.667723
H      -0.250402    1.910507    1.034761
H       0.969658   -0.267850    0.830558
H      -0.749185   -0.466878    0.426660
H      -0.166093   -2.355405   -0.852647
H       1.569035   -1.594167   -3.250616
H       1.042868   -3.240220   -2.902833
H      -2.468210   -1.564512   -4.538524
