21

C      -0.113513    1.581521   -0.014983
C      -0.050883    0.055270   -0.017145
C      -1.423871   -0.552771   -0.266838
O      -1.868105   -0.140694   -1.551882
C       1.109112   -0.496002   -0.902738
C       1.986008   -0.657608    0.364292
C       0.694501   -0.552567    1.236509
C       0.738312    0.187562    2.479636
C       0.782826    0.814065    3.506155
H       0.877731    2.024204    0.120578
H      -0.524257    1.932510   -0.964939
H      -0.751224    1.947277    0.796311
H      -1.353706   -1.651618   -0.210851
H      -2.120273   -0.224958    0.523066
H      -2.750703   -0.493978   -1.694883
H       0.853424   -1.456138   -1.359630
H       1.480220    0.169934   -1.684195
H       2.567656   -1.575357    0.470712
H       2.646862    0.195566    0.530171
H       0.303417   -1.559187    1.427968
H       0.823145    1.362366    4.414354
