14

N      -0.049923    1.391881   -0.144194
C      -0.019675    0.011327   -0.059896
N      -1.169190   -0.646102    0.022886
C      -1.161621   -1.986529    0.041121
C       0.011887   -2.708696   -0.013074
F      -0.008259   -4.047922    0.010366
C       1.236337   -2.045124   -0.085613
C       1.224004   -0.664339   -0.110411
O       2.342034    0.118343   -0.171980
H       0.784587    1.864930    0.166701
H      -0.913708    1.796349    0.185186
H      -2.118263   -2.495354    0.105916
H       2.162257   -2.610317   -0.120477
H       3.127160   -0.438847   -0.178640
