22

C      -0.496367    1.453742   -0.062846
C      -0.162067   -0.039286    0.069927
C      -1.441834   -0.862650    0.291984
C       0.585573   -0.562250   -1.160889
C       2.092578   -0.190392   -1.446041
C       2.893235    0.589780   -0.411152
N       2.358637   -1.635881   -1.447504
C       1.084946   -2.031881   -1.135386
O       0.594768   -3.113031   -0.930375
H       0.396514    2.071917   -0.193102
H      -1.151010    1.626853   -0.925312
H      -1.022199    1.812166    0.828257
H       0.479775   -0.174465    0.950313
H      -2.138901   -0.725132   -0.543533
H      -1.219300   -1.929008    0.367317
H      -1.951878   -0.540052    1.205491
H      -0.029672   -0.395111   -2.053119
H       2.232099    0.259008   -2.436830
H       2.737311    0.198598    0.597915
H       3.963352    0.519345   -0.635873
H       2.627414    1.650661   -0.421843
H       3.207899   -2.165247   -1.582424
