13

O      -0.008542    1.426509    0.008128
C      -0.002883    0.013157    0.002171
C      -1.428721   -0.477086    0.012499
C      -2.532797    0.382746    0.023700
N      -3.767050   -0.103924    0.032307
C      -3.842170   -1.438517    0.029273
N      -2.823376   -2.297103    0.018845
N      -1.591163   -1.799329    0.010304
H       0.901361    1.735278    0.001796
H       0.498890   -0.396116   -0.887937
H       0.514268   -0.403634    0.879871
H      -2.401768    1.459212    0.025594
H      -4.832427   -1.884676    0.036086
