19

C       0.097086    1.421527   -0.695917
N       0.259783    0.040454   -1.099036
C       0.820767   -0.884054   -0.287258
O       1.204737   -0.670279    0.850955
C       0.901050   -2.318232   -0.846065
C       1.075742   -2.529346   -2.331476
N       0.490938   -1.814653   -3.205437
O       1.897344   -3.585059   -2.546845
C       2.144999   -3.971968   -3.892463
H       0.410811    1.504192    0.345345
H       0.711306    2.093674   -1.307089
H      -0.948899    1.736293   -0.782776
H       0.045064   -0.253321   -2.046784
H       1.711149   -2.815846   -0.313571
H      -0.026335   -2.824009   -0.546968
H       0.691920   -2.085996   -4.164259
H       2.635825   -3.168403   -4.454328
H       2.810603   -4.833674   -3.839575
H       1.217565   -4.258792   -4.402270
