11

O      -0.106302   -0.002185    0.000317
C      -0.016079    1.198112    0.009524
C       1.255036    1.942500    0.000767
C       1.418172    3.299964    0.010415
O       2.738052    3.575032   -0.003178
C       3.333652    2.342255   -0.020313
N       2.508313    1.347444   -0.019197
C       4.753056    2.308452   -0.037581
N       5.908860    2.290697   -0.051574
H      -0.912336    1.856225    0.025760
H       0.745696    4.141659    0.025469
