24

C       0.122849    3.219286    0.888182
C      -0.162838    1.749334    0.565902
O       0.427489    1.375271   -0.669404
C       0.277669    0.760473    1.676122
C      -0.305372   -0.628383    1.400211
N       1.743591    0.698684    1.640100
C       2.526000    1.571593    2.511549
C       2.531753    0.096990    2.720145
C       1.934266   -0.502011    3.975639
H       1.196461    3.402722    0.987888
H      -0.248555    3.849040    0.075111
H      -0.370232    3.528921    1.816861
H      -1.246368    1.631138    0.434844
H       1.330061    1.108914   -0.437897
H      -0.098709    1.134420    2.642642
H      -0.011875   -0.960376    0.401505
H       0.035844   -1.365631    2.130209
H      -1.398413   -0.592482    1.441317
H       3.369078    2.083219    2.054071
H       1.984109    2.165193    3.247266
H       3.391168   -0.455919    2.342653
H       1.061445    0.054044    4.326801
H       1.637655   -1.544675    3.824144
H       2.681032   -0.486815    4.776970
