22

C      -0.212743    1.673969    0.168693
C      -0.118812    0.164299    0.094988
C       1.110628   -0.543976   -0.439436
N       2.247722    0.234179   -0.835402
C       3.526051   -0.222637   -0.715391
O       3.850901   -1.251573   -0.164574
C       0.736446   -0.676608    1.026161
C       1.603000   -0.020563    2.082995
C       0.182777   -2.025039    1.448250
H       0.740862    2.142126    0.422678
H      -0.545360    2.092466   -0.788795
H      -0.940690    1.980270    0.927376
H      -1.054344   -0.303636   -0.203585
H       0.949514   -1.428333   -1.053112
H       2.099432    1.048763   -1.411876
H       4.254349    0.474248   -1.179105
H       2.038551    0.921609    1.746424
H       1.019744    0.181522    2.988745
H       2.430346   -0.684796    2.350559
H       0.996597   -2.719536    1.684407
H      -0.449050   -1.929320    2.339129
H      -0.424548   -2.477247    0.657602
