23

C      -0.129941    1.552901   -0.120450
C      -0.209379    0.034689   -0.299781
C       0.993378   -0.543617   -1.057099
C       0.932611   -2.047340   -1.225443
C      -0.002875   -2.780655   -2.181885
C      -0.047339   -2.053153   -3.517861
O       1.401718   -2.014022   -3.595094
C       1.502739   -2.800135   -2.392211
C       2.556096   -3.858989   -2.362341
H       0.766153    1.839236    0.441619
H      -0.086592    2.063702   -1.088963
H      -0.999440    1.938922    0.420977
H      -0.286085   -0.447528    0.683989
H      -1.130933   -0.227252   -0.835166
H       1.080365   -0.071458   -2.041744
H       1.917181   -0.286180   -0.520954
H       1.039526   -2.606900   -0.296263
H      -0.680661   -3.562889   -1.865548
H      -0.457046   -2.662339   -4.331771
H      -0.494360   -1.052178   -3.550808
H       3.554297   -3.407468   -2.399678
H       2.484941   -4.443535   -1.440597
H       2.459425   -4.536131   -3.216896
