18

C      -0.020093    1.466865    0.014798
N      -0.030140    0.019053    0.000034
C      -0.033832   -0.778526   -1.130009
C       0.024925   -2.072093   -0.685208
C       0.035497   -3.335495   -1.482912
N       0.070082   -2.086313    0.693272
C       0.040360   -0.826030    1.075520
C       0.074983   -0.359161    2.493300
H       0.996630    1.868423   -0.070498
H      -0.615296    1.848063   -0.818491
H      -0.459819    1.832953    0.944539
H      -0.082773   -0.350883   -2.118571
H       0.938509   -3.922131   -1.280963
H      -0.820968   -3.970263   -1.230038
H      -0.001404   -3.125268   -2.555554
H       0.947641    0.270345    2.703817
H      -0.818253    0.216946    2.763709
H       0.122009   -1.237746    3.137653
