14

C      -0.051189   -1.165025    0.342381
C      -0.024533    0.014843    0.119656
C       0.016208    1.451697   -0.163549
O      -0.750884    2.210342    0.772128
C       0.101787    2.992240    1.602721
C       1.459594    2.894672    0.978661
C       1.427426    2.029024   -0.035378
C       2.495947    1.644066   -0.882747
N       3.348533    1.320331   -1.596452
H      -0.075804   -2.209192    0.537271
H      -0.395698    1.630070   -1.166282
H      -0.276479    4.023092    1.632375
H       0.105269    2.612173    2.637031
H       2.326411    3.441195    1.325340
