17

N      -0.109996    1.286785   -0.103704
C      -0.061041    0.029540   -0.177018
O      -0.912298   -0.720599    0.554815
C      -0.905270   -2.125422    0.337413
C      -1.271046   -2.836856    1.657186
N      -1.923136   -4.042082    1.182389
C      -2.405402   -3.975108   -0.100741
O      -3.054486   -4.825747   -0.662738
C      -1.966320   -2.614366   -0.656802
H       0.608759    1.699021   -0.694646
H       0.633862   -0.566259   -0.785509
H       0.093277   -2.443606    0.013289
H      -0.390017   -3.060687    2.265517
H      -1.939724   -2.192021    2.242895
H      -2.203074   -4.796871    1.788666
H      -2.828487   -1.938328   -0.642289
H      -1.620804   -2.702415   -1.687793
