20

C       0.185051    1.538246    0.310429
C      -0.042734    0.072490   -0.006604
C       0.793642   -0.580570   -1.079377
C       1.021397   -0.926448    0.374678
C      -1.486742   -0.339081    0.141446
C      -2.483636    0.034871   -0.982978
C      -2.636232   -1.462258   -1.130988
N      -3.324318   -2.218596   -1.855411
O      -1.722321   -1.762604   -0.137595
H       1.241260    1.800011    0.200964
H      -0.389068    2.189688   -0.359119
H      -0.111118    1.773987    1.339676
H       0.334271   -1.340709   -1.700675
H       1.530502    0.032592   -1.587028
H       1.914771   -0.552668    0.863504
H       0.699250   -1.907906    0.702570
H      -1.850271   -0.109445    1.149426
H      -3.389312    0.562048   -0.680368
H      -2.038830    0.529358   -1.848529
H      -3.144656   -3.200985   -1.640507
