17

C      -0.096897    1.555893    0.025000
C       0.003718    0.049431   -0.044527
C      -1.287200   -0.770035    0.278144
C      -0.552440   -1.331050    1.530781
N       0.716912   -0.659377    1.094312
C       1.498481   -1.397519    0.164127
O       2.172258   -2.374202    0.318955
C       1.010529   -0.572315   -1.046652
H       0.897172    2.013119    0.050380
H      -0.630729    1.944402   -0.849823
H      -0.639461    1.875518    0.920550
H      -2.176419   -0.168923    0.478811
H      -1.537468   -1.527055   -0.469256
H      -0.907409   -0.931545    2.483517
H      -0.456069   -2.416243    1.611410
H       0.607353   -1.182127   -1.858108
H       1.739856    0.131207   -1.457432
