14

O       0.247628    1.251558    0.475947
C      -0.001745   -0.051288    0.041196
C      -1.491079   -0.391726   -0.151526
N      -1.430962   -1.430009   -1.182351
C      -0.329915   -1.352528   -2.010774
N      -0.030412   -1.948864   -3.094896
C       0.574070   -0.332916   -1.344108
O       1.519926    0.245465   -1.809123
H       1.005208    1.563838   -0.041327
H       0.436473   -0.799138    0.726304
H      -1.966307   -0.770997    0.756249
H      -2.025835    0.509453   -0.479703
H      -2.263464   -1.915707   -1.475672
H      -0.775200   -2.580247   -3.399566
