17

O      -0.158164   -0.002383    0.002751
C      -0.005670    1.200124    0.008067
N       1.200380    1.831721    0.000372
C       2.446708    1.132093   -0.015681
C       2.976353    0.151802   -1.106551
C       4.099790    0.264965   -0.036311
C       3.841821    1.803218   -0.022404
C       2.994572    0.135427    1.050947
H      -0.849230    1.920103    0.020015
H       1.214107    2.839521    0.004991
H       2.455555   -0.803259   -1.183290
H       3.187600    0.586732   -2.087474
H       5.068335   -0.229793   -0.048275
H       4.116392    2.354969   -0.926415
H       4.131718    2.341153    0.885135
H       3.222464    0.555445    2.034637
H       2.474952   -0.820697    1.121959
