27

C      -0.083829    1.588904   -0.045783
C      -0.054452    0.053864    0.005101
C      -1.485819   -0.499234    0.067258
C       0.742481   -0.535009   -1.172366
C       2.231333   -0.078470   -1.228501
C       3.049489   -1.298680   -1.729989
C       2.009854   -2.357947   -2.154981
C       2.525526   -3.795157   -2.129725
C       0.829533   -2.073490   -1.212851
H       0.922185    2.018188   -0.039044
H      -0.589009    1.938098   -0.954840
H      -0.627661    1.999543    0.811540
H       0.463456   -0.243808    0.930103
H      -2.037301   -0.260191   -0.850557
H      -1.499918   -1.585792    0.190773
H      -2.038234   -0.061623    0.905685
H       0.248353   -0.208993   -2.099995
H       2.355187    0.791667   -1.879142
H       2.573780    0.229361   -0.234194
H       3.737936   -1.044088   -2.541428
H       3.663098   -1.703433   -0.915840
H       1.680221   -2.124947   -3.178018
H       2.853803   -4.074472   -1.121310
H       1.750124   -4.505680   -2.436189
H       3.379145   -3.925436   -2.804008
H       1.057645   -2.463860   -0.209417
H      -0.098199   -2.550567   -1.542719
