18

C       0.322758    1.239766    0.049448
N      -0.179203   -0.213520   -0.087481
H       0.034649   -0.534952   -1.077485
C       0.532395   -1.233718    0.862614
C      -1.776104   -0.309220    0.039062
C      -2.128218   -1.713412   -0.126155
C      -1.958814   -2.924436   -0.203821
C      -0.971158   -4.230579   -0.118493
O      -1.374324   -5.406222   -0.316473
O       0.228476   -3.734312    0.158276
H       1.409278    1.253677   -0.141598
H      -0.207856    1.875499   -0.680438
H       0.111934    1.574900    1.078578
H       0.327864   -2.411919    0.505728
H       1.601673   -0.960623    0.812849
H       0.150179   -1.004570    1.871780
H      -2.000916    0.110028    1.043025
H      -2.160329    0.385462   -0.739295
