25

C       0.358988   -1.455696    1.140971
C      -0.048793   -0.514374    0.001951
C       0.661805   -0.707590   -1.317554
C       2.095118   -1.157426   -1.462798
C       1.019142   -1.942940   -2.170478
C       0.808410   -3.418445   -1.973678
C       0.642329   -1.188500   -3.450118
C       0.287368    0.074823   -2.598690
C      -1.167825    0.513005   -2.719023
H       0.184449   -2.504553    0.882070
H       1.416208   -1.344473    1.400406
H      -0.224483   -1.237627    2.040856
H      -1.131160   -0.602465   -0.157571
H       0.115958    0.523230    0.328601
H       2.808202   -0.556597   -2.026842
H       2.527247   -1.650066   -0.597261
H       1.055312   -3.734154   -0.955611
H      -0.229970   -3.708386   -2.173782
H       1.445491   -3.994750   -2.657055
H       1.436365   -1.082045   -4.198403
H      -0.243916   -1.601165   -3.942862
H       0.940875    0.937956   -2.781190
H      -1.853295   -0.325410   -2.549846
H      -1.417484    1.299082   -1.998062
H      -1.367527    0.906017   -3.722024
