21

C       0.016371    1.608394    0.005150
C       1.561426    1.462580    0.089962
C       1.326766    0.021213    0.639792
C      -0.095199    0.060672   -0.001617
C      -0.151441   -0.539571   -1.400829
O      -0.290707    0.344110   -2.528748
C       0.918738   -0.409263   -2.402775
C       2.235378    0.308730   -2.186320
C       2.262626    1.554303   -1.280304
H      -0.400936    2.025498    0.925543
H      -0.393737    2.135524   -0.857218
H       2.052297    2.153500    0.781140
H       2.003459   -0.778730    0.328726
H       1.268413    0.019671    1.731663
H      -0.903120   -0.366460    0.597721
H      -0.779546   -1.427917   -1.482696
H       0.998459   -1.216913   -3.135516
H       2.937813   -0.443666   -1.802913
H       2.629433    0.596564   -3.169524
H       1.833137    2.403751   -1.824171
H       3.319754    1.800170   -1.125412
