18

O       0.094404    1.392565   -0.090075
C       0.015847    0.020160    0.073289
C      -0.310057   -0.902649   -1.058691
C      -1.307185   -0.769097    0.106021
C      -1.221933   -1.801294    1.226998
C       0.290538   -1.896841    1.544227
C       0.877027   -0.511011    1.203487
C      -2.532012   -0.081843   -0.159524
N      -3.494747    0.522201   -0.384592
H      -0.620917    1.693420   -0.662688
H      -0.617099   -0.440584   -1.990948
H       0.212629   -1.845935   -1.180304
H      -1.779627   -1.428963    2.092612
H      -1.653105   -2.767976    0.949359
H       0.471722   -2.177746    2.583951
H       0.757122   -2.669478    0.925481
H       1.937111   -0.554040    0.935849
H       0.776089    0.182482    2.045177
