20

C      -0.119740    1.559697    0.017287
C       0.011864    0.039037   -0.013029
C       0.984433   -0.522488   -1.067244
C       2.346387   -0.007051   -0.572304
C       2.727738   -1.336676   -0.054743
C       1.401515   -1.967167   -0.506810
C       0.652478   -2.101622    0.829601
C       0.779992   -0.604794    1.167095
N       2.242268   -0.290364    0.884278
H       0.849342    2.044269    0.167432
H      -0.545459    1.937859   -0.918534
H      -0.778334    1.876547    0.832734
H      -0.983406   -0.412226   -0.100688
H       0.727980   -0.435988   -2.121615
H       2.939377    0.833707   -0.913903
H       3.691471   -1.803501    0.116410
H       1.413861   -2.804170   -1.201753
H      -0.387596   -2.430851    0.750420
H       1.181931   -2.754069    1.530782
H       0.509497   -0.285530    2.173253
