24

C       0.020509    1.478548    0.043787
N       0.004831    0.026635    0.060272
C       0.520943   -0.596916   -0.915227
C       1.180298   -0.018608   -2.142662
O       0.532483   -1.947923   -0.950914
C      -0.060622   -2.631866    0.160218
C       0.052071   -4.133361   -0.089557
C      -0.435651   -4.899861    1.146740
C      -0.711393   -4.556120   -1.350974
H       1.030286    1.896786   -0.080596
H      -0.604733    1.892853   -0.760784
H      -0.376973    1.851920    0.991334
H       2.048581    0.585904   -1.860191
H       1.504368   -0.811599   -2.816414
H       0.487037    0.642636   -2.672486
H       0.455085   -2.334772    1.080176
H      -1.106586   -2.317439    0.262638
H       1.116904   -4.357832   -0.238972
H      -1.493221   -4.691240    1.347606
H      -0.334654   -5.979581    0.999658
H       0.134005   -4.627636    2.041488
H      -1.786229   -4.370609   -1.234797
H      -0.365729   -3.997880   -2.224370
H      -0.578380   -5.624246   -1.550902
