14

O       0.062549    1.405349    0.149954
C       0.073368   -0.003362   -0.013418
C      -1.306501   -0.552571   -0.163686
O      -2.117065   -0.714833    1.008688
C      -1.932922   -1.838651    0.149671
C      -2.902031   -1.669151   -1.092305
O      -3.630721   -0.457773   -0.921591
C      -2.289497   -0.376871   -1.396604
H      -0.465962    1.598769    0.932363
H       0.655771   -0.197801   -0.920628
H       0.570716   -0.514432    0.824171
H      -1.534507   -2.754925    0.568386
H      -3.313797   -2.444744   -1.725335
H      -2.093428    0.132113   -2.331724
