17

N      -0.311915    1.011391   -1.604322
C      -0.384365   -0.336871   -1.792576
O       0.296479   -0.915568   -2.623714
C      -1.373303   -1.030734   -0.894453
C      -1.958414   -2.323689   -1.372468
N      -1.066109   -2.309920   -0.234405
C       0.268808   -2.913955   -0.393342
C       0.203472   -4.347503   -0.131253
C       0.157051   -5.531525    0.066588
H       0.333061    1.537151   -2.170882
H      -0.833601    1.488281   -0.890940
H      -1.982709   -0.373989   -0.276229
H      -2.999872   -2.550881   -1.162134
H      -1.571895   -2.685287   -2.322942
H       0.699064   -2.732985   -1.386453
H       0.931699   -2.436223    0.338791
H       0.119654   -6.577545    0.244361
