17

C      -0.423677    1.044621    0.044511
C       1.087429    1.015314    0.176112
C       0.335775   -0.238772   -0.117146
O       0.298805   -1.177905    0.941618
C      -0.790544   -1.955820    1.011796
C      -1.485929   -2.415974    2.084286
C      -2.489999   -3.289452    1.541066
C      -2.328489   -3.279599    0.196005
O      -1.277690   -2.465921   -0.147198
H      -0.997761    1.160984    0.956553
H      -0.868839    1.493576   -0.836209
H       1.695205    1.446204   -0.611258
H       1.498134    1.110596    1.174538
H       0.410811   -0.695753   -1.098120
H      -1.304291   -2.165541    3.115914
H      -3.236418   -3.841334    2.090781
H      -2.839489   -3.747696   -0.627650
