21

C       0.013291    1.606529    0.030529
C      -0.088145    0.070684    0.049626
C       0.755280   -0.536901    1.178024
O      -1.443802   -0.377798    0.067911
C      -2.258950   -0.017949    1.174252
C      -3.542333   -0.823374    1.028683
O      -3.286425   -2.212587    1.050969
C       0.426937   -0.440001   -1.302732
O       1.585952   -0.447249   -1.621132
H       1.048653    1.900784   -0.158980
H      -0.619926    2.027977   -0.756082
H      -0.294265    2.031444    0.990087
H       0.541912   -0.065537    2.140992
H       0.561810   -1.610073    1.263103
H       1.813394   -0.392127    0.947791
H      -1.770552   -0.276682    2.123078
H      -2.481172    1.059117    1.175446
H      -4.211291   -0.602166    1.866736
H      -4.051281   -0.520366    0.099704
H      -2.587005   -2.357665    0.403151
H      -0.382272   -0.790562   -1.979811
