16

C       0.053252    1.485016   -0.051559
C       0.000572   -0.010121    0.037248
C      -1.313777   -0.802810   -0.139046
C      -0.691364   -2.098171    0.405587
O      -0.396680   -1.719264    1.785700
C       0.626801   -0.900405    1.222771
C       0.831760   -1.799236    0.007140
O       0.865768   -0.718508   -0.917754
H       1.076071    1.848316    0.083910
H      -0.305504    1.830161   -1.026890
H      -0.580122    1.929625    0.722460
H      -2.142322   -0.475467    0.492004
H      -1.606355   -0.833065   -1.190485
H      -1.195067   -3.057357    0.307024
H       1.364818   -0.494108    1.912550
H       1.556848   -2.596168   -0.144050
