20

C       0.031689    1.549444   -0.168644
C      -0.003833    0.045309    0.015850
C      -1.203424   -0.637030   -0.614312
C       1.302218   -0.712296    0.010313
O       2.497707   -0.002786   -0.108339
C       0.524273   -0.588038    1.307140
C       1.153527    0.206761    2.431465
O       2.493214   -0.231960    2.724551
H       1.013087    1.960961    0.071459
H      -0.173161    1.798442   -1.215971
H      -0.727370    2.050769    0.442982
H      -1.253267   -0.423057   -1.688270
H      -1.159888   -1.724326   -0.492985
H      -2.139890   -0.290224   -0.161346
H       1.310272   -1.685037   -0.483611
H       2.955539   -0.092514    0.740583
H      -0.003162   -1.481913    1.633965
H       1.259049    1.261771    2.174888
H       0.533125    0.152441    3.336201
H       2.447375   -1.164593    2.960994
