19

O       0.309530    1.241079    0.135148
C       0.067658   -0.113749    0.436530
C      -1.370490   -0.519565    0.131586
C      -1.704913   -1.995904    0.232169
C      -1.009398   -2.833445   -0.820640
C       0.182642   -3.644030   -0.536274
O      -1.105498   -4.248148   -0.656336
C      -2.428269    0.490048    0.255307
O      -1.893960    0.144687   -1.036406
H      -0.087164    1.386650   -0.734490
H       0.749729   -0.777216   -0.119135
H       0.271791   -0.255312    1.504200
H      -1.443313   -2.371923    1.228539
H      -2.786602   -2.122820    0.113824
H      -1.160647   -2.491913   -1.845276
H       0.886285   -3.876456   -1.334351
H       0.605685   -3.643168    0.468067
H      -3.455413    0.173269    0.425947
H      -2.170990    1.487510    0.601561
