16

O       0.029232   -0.037962    0.253754
C      -0.022260    1.153658    0.043300
C      -1.326525    1.899863   -0.155697
C      -1.140815    3.392307   -0.284279
C      -0.079494    4.162156    0.399232
C       1.257606    3.416268    0.525194
C       1.222160    3.243988   -0.955608
C       1.179467    2.007392   -0.068984
N      -0.069482    4.017774   -1.106584
H      -1.810323    1.499532   -1.055372
H      -1.996273    1.670604    0.680753
H      -2.067673    3.944128   -0.429896
H      -0.247968    5.130049    0.859867
H       2.065763    3.701088    1.184084
H       1.977797    3.369688   -1.719675
H       2.120763    1.468808   -0.022407
