23

C      -0.025866    1.510781    0.054178
C       0.007056    0.015445   -0.010325
C       0.016278   -0.749614   -1.109066
C       0.062796   -2.228335   -0.790422
C       0.029735   -2.272102    0.739930
C       0.015136   -0.825724    1.225401
C      -1.174810   -1.749747    1.491851
C      -2.514927   -1.553561    0.812765
C      -1.297229   -2.237558    2.925898
H       0.827175    1.900276    0.624552
H       0.001394    1.959230   -0.942707
H      -0.928811    1.867385    0.565837
H      -0.033771   -0.372567   -2.125564
H      -0.774667   -2.775820   -1.245021
H       0.976726   -2.697364   -1.179343
H       0.638470   -3.017474    1.240709
H       0.591459   -0.493392    2.084934
H      -2.419342   -1.117625   -0.183380
H      -3.039359   -2.511847    0.714011
H      -3.155420   -0.891793    1.408057
H      -1.864310   -1.525545    3.537264
H      -1.819855   -3.200798    2.969832
H      -0.315573   -2.370390    3.391627
