19

C       0.146895    1.159898   -0.263385
O      -0.000258   -0.160091    0.251809
C      -1.277214   -0.680980    0.152232
C      -2.333686   -0.067148    1.002912
O      -2.174180    0.879895    1.732181
C      -1.816994   -1.250285   -1.159256
C      -0.653737   -1.801005   -1.996599
C      -0.268485   -2.744903   -0.814784
C      -1.440337   -2.176834   -0.004953
H       1.216584    1.379509   -0.246216
H      -0.215137    1.224281   -1.298794
H      -0.387061    1.887290    0.354138
H      -3.326382   -0.567526    0.910004
H      -2.796240   -0.975083   -1.534326
H      -1.005438   -2.352478   -2.870715
H       0.098997   -1.075771   -2.313325
H      -0.412365   -3.798665   -1.060625
H       0.719899   -2.604077   -0.374750
H      -2.077069   -2.738459    0.669211
