18

C       0.007201    1.525130   -0.083470
C      -0.030087    0.015392    0.009542
C      -1.198885   -0.644905    0.139835
C      -1.295522   -2.148663    0.099035
C      -0.594957   -2.711290    1.310163
C       0.734515   -2.585564    1.473785
C       1.600525   -1.796197    0.627177
C       1.258340   -0.656397   -0.028469
H       0.567855    1.967836    0.748199
H       0.507173    1.844991   -1.006324
H      -0.998771    1.951962   -0.081824
H      -2.117703   -0.077449    0.266754
H      -2.339783   -2.468306    0.067773
H      -0.806038   -2.525399   -0.810493
H      -1.183877   -3.240434    2.054521
H       1.211707   -3.095727    2.308000
H       2.649515   -2.084660    0.606020
H       2.060989   -0.111924   -0.523906
