20

C       0.478314    1.310823   -0.245500
C       0.017084   -0.086828    0.081869
N      -0.472653   -0.521041    1.167544
O       0.185760   -0.885573   -1.001850
C      -0.104833   -2.289515   -0.857254
C      -0.357335   -2.844775   -2.275280
C       0.822217   -3.814335   -2.511594
C       1.821298   -3.376871   -1.434776
O       1.002608   -2.967621   -0.338706
H       1.544733    1.304547   -0.491650
H      -0.053442    1.687236   -1.124651
H       0.309440    1.987025    0.594103
H      -0.538640    0.227042    1.853249
H      -0.922134   -2.395693   -0.145979
H      -1.326145   -3.344273   -2.335740
H      -0.359425   -2.018153   -2.988407
H       0.513950   -4.848930   -2.336085
H       1.231727   -3.750274   -3.522394
H       2.476713   -4.174450   -1.077977
H       2.443385   -2.539730   -1.783469
