13

N      -0.363001    1.115066   -0.515845
C      -0.137441   -0.036348   -0.089643
O       0.986953   -0.637150    0.417438
C       0.279671   -1.901957    0.639748
C      -1.011342   -1.286731    0.076531
C      -2.154995   -1.103840    1.048361
O      -2.115035   -1.407806    2.213037
C      -3.365256   -0.494865    0.469035
N      -4.326110   -0.050386    0.004652
H       0.463053    1.713494   -0.476549
H       0.721584   -2.705571    0.049141
H       0.245674   -2.153543    1.699876
H      -1.372310   -1.683370   -0.874755
