18

C       0.093047    1.347514    0.007629
O      -0.040263   -0.078785    0.000923
C      -1.309459   -0.539384    0.012080
O      -2.277496    0.177790    0.026573
C      -1.326091   -2.054486    0.003939
C      -2.739417   -2.633041    0.013795
C      -2.737347   -4.155702    0.005993
O      -4.086994   -4.591147    0.016017
H       1.164897    1.546133   -0.002643
H      -0.385242    1.784984   -0.872525
H      -0.366372    1.774884    0.902670
H      -0.761008   -2.388784   -0.875305
H      -0.745180   -2.398141    0.869183
H      -3.282413   -2.279867    0.895878
H      -3.298315   -2.270959   -0.854653
H      -2.205101   -4.524102   -0.887343
H      -2.189014   -4.533143    0.885727
H      -4.093982   -5.552582    0.010907
