19

N       0.881400   -0.165911    0.781616
C      -0.016664    0.281500   -0.144278
O       0.200786    1.240913   -0.859612
C      -1.314953   -0.502355   -0.142053
C      -2.092482   -0.824317   -1.360146
C      -1.439753   -0.693347   -2.727929
C      -0.114670   -1.480509   -2.603743
C      -0.349175   -2.438489   -1.409312
N      -1.454927   -1.912842   -0.579654
H       1.742197    0.341581    0.906874
H       0.671822   -0.935524    1.393380
H      -1.878639   -0.315774    0.772745
H      -3.176854   -0.772235   -1.308007
H      -2.100679   -1.144264   -3.475541
H      -1.271470    0.348738   -3.006434
H       0.127948   -2.029073   -3.517361
H       0.713023   -0.797810   -2.407466
H      -0.673643   -3.425199   -1.756305
H       0.549448   -2.585526   -0.802103
