23

C      -0.002929    1.590303    0.056692
C      -0.013094    0.057960   -0.004505
C       0.705605   -0.532306   -1.236767
C       2.179594   -0.097328   -1.271349
O       2.917991   -0.770322   -2.270990
C       3.011204   -2.156799   -2.016240
C       1.693740   -2.769161   -1.636111
C       0.619419   -2.051238   -1.301693
C      -0.707618   -2.707075   -1.021156
H       1.005613    1.994038    0.186700
H      -0.419264    2.024733   -0.859336
H      -0.606837    1.947248    0.896695
H       0.443723   -0.351091    0.906992
H      -1.053868   -0.281763   -0.001582
H       0.208107   -0.126956   -2.132654
H       2.270198    0.967515   -1.499101
H       2.631618   -0.269737   -0.277925
H       3.390070   -2.612226   -2.939351
H       3.767759   -2.355636   -1.232832
H       1.641165   -3.855519   -1.668617
H      -0.661713   -3.781821   -1.216007
H      -1.028535   -2.567571    0.017602
H      -1.499985   -2.283605   -1.652273
