15

O       0.041105    0.033590   -0.410860
C      -0.015557    1.170438   -0.046998
C      -1.259740    1.958030    0.370898
C      -0.723806    3.235911    0.973946
C       0.236250    3.112995    2.097439
N       0.746377    3.371618    0.740425
C       1.199260    2.158781    0.047376
C       2.366960    1.541412    0.668053
N       3.280310    1.050175    1.176602
H      -1.864277    2.148095   -0.524017
H      -1.868102    1.354244    1.049652
H      -1.290764    4.151743    0.844637
H       0.376562    3.936198    2.790025
H       0.397577    2.127493    2.531704
H       1.460132    2.430246   -0.984841
