17

C       0.010314    1.511998    0.070509
C      -0.121788    0.018883   -0.026815
N      -1.231273   -0.556510    0.117117
C      -1.458311   -1.983857    0.107188
C      -0.235335   -2.868739    0.339594
N       0.737469   -2.740113   -0.730978
C       1.487923   -1.639299   -0.985643
O       2.422160   -1.597661   -1.739789
O       1.150869   -0.505202   -0.260103
H       0.747861    1.772663    0.836072
H       0.377316    1.918411   -0.877200
H      -0.954178    1.952851    0.317682
H      -2.204736   -2.198543    0.882664
H      -1.922795   -2.256400   -0.849529
H       0.221468   -2.630264    1.308758
H      -0.546435   -3.916141    0.375711
H       1.050466   -3.563384   -1.218984
