24

C       0.001670    1.509103    0.173393
C       1.437852    2.062520    0.069193
C       2.345268    1.482469   -1.024687
C       1.938679    1.715481   -2.486479
C       0.617668    1.082244   -2.969921
C       0.366845   -0.377237   -2.524115
C      -0.575243   -0.560414   -1.319616
C      -0.139049   -0.026650    0.057600
H      -0.395469    1.830691    1.143316
H      -0.644870    1.985218   -0.571660
H       1.386810    3.154103   -0.041483
H       1.939003    1.884713    1.030106
H       3.344870    1.914166   -0.887420
H       2.474854    0.406689   -0.853213
H       1.905241    2.794842   -2.687140
H       2.750835    1.322217   -3.112471
H      -0.234236    1.700654   -2.667211
H       0.625359    1.123335   -4.065431
H      -0.084373   -0.924073   -3.360567
H       1.322952   -0.881272   -2.331468
H      -1.542163   -0.101248   -1.571440
H      -0.776640   -1.634371   -1.213246
H       0.793670   -0.514416    0.369730
H      -0.895162   -0.362207    0.777302
