17

O       0.010254    0.028854   -0.362498
C       0.020901    1.208735   -0.139738
C      -1.194739    2.127751    0.056821
C      -0.634166    3.564203   -0.044536
N       0.771384    3.383672    0.296960
C       1.874435    4.286737   -0.020441
C       3.064920    3.274814   -0.024955
N       2.466533    1.933906   -0.221971
C       1.218617    2.110249   -0.019668
H      -1.978455    1.903280   -0.668644
H      -1.602859    1.932905    1.054986
H      -0.748663    3.961533   -1.066256
H      -1.126578    4.261510    0.639421
H       1.723215    4.750880   -1.008589
H       1.986363    5.083555    0.719346
H       3.802852    3.485363   -0.803100
H       3.592327    3.287037    0.937831
