21

O      -0.119702    1.482542   -0.352384
C       0.001285    0.123659    0.037689
C      -1.372164   -0.522469   -0.088225
C      -1.371116   -2.004203    0.308226
C      -2.754133   -2.617565    0.199323
C      -3.244957   -3.243395   -1.061492
C      -3.005351   -4.127792    0.160077
C      -1.890315   -5.098100    0.126308
O      -1.895402   -6.162420    0.696124
H       0.743019    1.898619   -0.268048
H       0.724240   -0.412291   -0.599718
H       0.359007    0.035952    1.076898
H      -2.077067    0.035409    0.540402
H      -1.719528   -0.409940   -1.121895
H      -0.662414   -2.548349   -0.326852
H      -1.004898   -2.110515    1.337982
H      -3.506084   -2.089056    0.780806
H      -4.272484   -3.100663   -1.375186
H      -2.537497   -3.346835   -1.879556
H      -3.873801   -4.489327    0.699934
H      -1.016774   -4.788599   -0.492772
