19

C       0.225386    1.668232    0.008084
C      -0.102847    0.195377    0.255147
O       0.066799   -0.557647   -0.955998
C       0.997373   -1.624171   -0.767779
C       1.435280   -1.501557    0.668257
C       0.801511   -0.489049    1.246219
C       0.323470   -2.948400   -1.078825
C       0.440402   -3.577513   -2.397233
O       1.206005   -4.052576   -1.285712
H       1.274059    1.784489   -0.280721
H      -0.404010    2.063702   -0.794020
H       0.042993    2.259936    0.911540
H      -1.157846    0.118751    0.565977
H       1.844978   -1.509434   -1.462663
H       2.154589   -2.174628    1.116055
H       0.900326   -0.159837    2.273136
H      -0.552689   -3.168005   -0.467143
H      -0.341582   -4.249532   -2.746518
H       1.012073   -3.078872   -3.178960
