15

C       0.216113    1.523760    0.002018
C       1.482234    0.684382   -0.051148
N       2.082710    0.220721    1.160345
C       1.114133   -0.437443    1.907711
N      -0.024943   -0.639241    1.345634
C       0.047038    0.044553    0.081545
C       0.288035   -0.711369   -1.257317
O       0.590093    0.259215   -2.266831
C       1.632374   -0.139807   -1.374692
H       0.054300    2.069324    0.924697
H      -0.080114    2.033154   -0.904991
H       2.860833    0.685749    1.601112
H       1.351683   -0.762877    2.917437
H      -0.145321   -1.655725   -1.563670
H       2.554319   -0.517846   -1.801494
