15

C       0.473868    1.017822   -0.526549
N      -0.351946    0.152928    0.326675
C       0.330212   -0.539687    1.337705
C       0.580566   -0.317424    2.662167
N       1.279998   -1.380668    3.222762
C       1.453105   -2.213816    2.235637
O       2.094496   -3.396180    2.279192
N       0.913319   -1.782507    1.068282
H       1.218768    0.409477   -1.047872
H      -0.162670    1.487878   -1.281758
H       1.008663    1.802869    0.028957
H      -1.121319    0.677217    0.723145
H       0.294583    0.538179    3.254794
H       2.398865   -3.498037    3.189923
H       0.851510   -2.291870    0.203207
