14

C       0.033072    1.427993    0.019416
N      -0.097323   -0.015035   -0.098107
C       0.570440   -0.687204   -1.071766
N       1.171958   -0.125303   -2.092273
O       1.659762   -1.184587   -2.847426
N       1.374288   -2.378925   -2.287493
C       0.703168   -2.118403   -1.190532
C       0.212409   -3.091301   -0.294588
C      -0.229548   -3.863168    0.516062
H       1.059230    1.743167    0.251366
H      -0.258619    1.897543   -0.923473
H      -0.636605    1.778645    0.806696
H      -0.254132   -0.538371    0.748610
H      -0.615071   -4.565089    1.214424
