14

N       0.695200    0.093527    0.803524
C      -0.120730    0.114119   -0.257849
O       0.028334    0.765322   -1.277888
C      -1.383850   -0.794026   -0.157485
O      -2.127161   -0.667302   -1.326682
C      -0.951667   -2.260695    0.035510
O      -0.301706   -2.661336    0.961605
C      -2.233056   -0.364984    1.055278
O      -1.848986   -0.376743    2.192256
H       1.528336    0.658812    0.795511
H       0.477657   -0.487280    1.599590
H      -1.623048   -0.032453   -1.871425
H      -1.321547   -2.906558   -0.786823
H      -3.250720   -0.048059    0.748421
