16

C      -0.411226    1.009245   -0.198508
O       0.568342    0.022791    0.091053
C       1.014537   -0.642062   -1.032317
C       1.498862   -2.041513   -0.833953
C       0.188195   -1.804189   -1.586486
O      -1.006742   -2.044224   -0.898248
C       0.152126   -2.018435   -3.007791
C       0.116060   -2.213172   -4.194951
H      -0.022074    1.765827   -0.895989
H      -1.313621    0.557436   -0.625833
H      -0.658813    1.494171    0.748175
H       1.511599   -0.019544   -1.778025
H       2.364858   -2.389468   -1.384102
H       1.374836   -2.434669    0.168929
H      -1.194158   -2.987996   -0.952739
H       0.079377   -2.374563   -5.243806
