17

C      -0.129633    1.471084   -0.133507
C      -0.027578   -0.043630    0.044383
C      -1.380513   -0.685312    0.342605
C       0.880375   -0.766872   -1.010683
O       1.837978   -1.110435    0.057275
C       1.083930   -0.473275    1.011331
O       1.328465   -0.355640    2.168382
C       0.373679   -1.927781   -1.707607
C      -0.058022   -2.876096   -2.306085
H       0.844365    1.921705   -0.347634
H      -0.810568    1.715864   -0.955212
H      -0.518582    1.929919    0.779995
H      -2.089257   -0.478675   -0.465396
H      -1.300653   -1.769005    0.454508
H      -1.785528   -0.272185    1.270773
H       1.362649   -0.075667   -1.708089
H      -0.431598   -3.718945   -2.834290
