18

C       0.368527    1.293510   -0.470870
C      -0.370998    0.235112    0.367752
C       0.404909   -0.235202    1.510607
C       1.073748   -0.614196    2.437760
C       1.852748   -1.073749    3.581952
C       0.979114   -1.405831    4.836566
O       1.305701   -2.781278    5.139040
C       2.193993   -3.160041    4.191345
N       2.574484   -2.345411    3.300105
H       1.306705    0.891374   -0.862191
H      -0.250545    1.611397   -1.315061
H       0.605001    2.173124    0.133954
H      -1.325398    0.646734    0.720762
H      -0.630412   -0.621336   -0.267662
H       2.604078   -0.313623    3.828477
H       1.228558   -0.794344    5.706694
H      -0.091328   -1.338886    4.633207
H       2.528318   -4.187880    4.281561
