22

C       0.152864    1.366239    0.008119
O       0.053813   -0.037882    0.001215
C      -1.280097   -0.495443    0.011752
C      -1.227603   -2.021386    0.002849
C      -2.605101   -2.741200    0.012202
C      -3.415632   -2.421489    1.290062
C      -3.439927   -2.407977   -1.246400
C      -2.328538   -4.189582    0.001785
N      -2.113382   -5.325339   -0.006141
H       1.215808    1.618351   -0.000905
H      -0.326647    1.814910   -0.876491
H      -0.309136    1.804903    0.906951
H      -1.803705   -0.118228    0.905793
H      -1.821065   -0.108465   -0.867661
H      -0.666050   -2.337799   -0.882191
H      -0.649092   -2.347462    0.873339
H      -3.700530   -1.366259    1.304218
H      -4.329986   -3.019491    1.325418
H      -2.832554   -2.635877    2.189738
H      -2.874207   -2.612677   -2.159317
H      -4.354842   -3.005678   -1.270612
H      -3.724948   -1.352692   -1.243812
