15

O       0.040990    1.392183    0.008209
C      -0.011858   -0.013568    0.002035
C      -1.440923   -0.448553    0.012727
C      -2.561860    0.321064    0.023327
C      -3.706294   -0.574576    0.030634
O      -4.903053   -0.374035    0.040639
C      -3.100857   -1.996828    0.023037
N      -3.686311   -3.118394    0.026110
N      -1.725801   -1.804259    0.011827
H       0.963401    1.662588   -0.002986
H       0.476343   -0.445503   -0.889402
H       0.492327   -0.453820    0.880447
H      -2.582080    1.397422    0.025707
H      -4.695582   -2.939820    0.034929
H      -1.052548   -2.551234    0.006872
