16

C      -0.165088    1.487403    0.067857
C       0.149330    0.022048   -0.013557
O      -0.654894   -0.856292    0.834665
C       0.765044   -0.789501    1.041772
C       1.480319   -1.981838    0.394904
O       0.964518   -3.227806    0.832850
C       1.240825   -1.738707   -1.091627
C       0.506990   -0.648119   -1.312427
H       0.670203    2.082641   -0.315838
H      -1.050315    1.726699   -0.531540
H      -0.363018    1.781611    1.101046
H       1.082749   -0.397654    2.004199
H       2.547169   -1.992471    0.644963
H       0.003589   -3.139177    0.773751
H       1.573889   -2.451012   -1.837721
H       0.167587   -0.282425   -2.274881
