20

C      -0.122717    1.389121    0.248820
C       1.372288    1.736019    0.038814
C       1.626742    0.204080    0.081021
N       0.160409   -0.061035    0.040362
C      -0.397498   -0.652503   -1.165292
C       0.216243   -0.220603   -2.513552
O       0.319941    1.190578   -2.666958
C       1.564919    1.779711   -2.390914
O       1.656585    2.442233   -1.156719
H      -0.488131    1.584157    1.264546
H      -0.796266    1.847733   -0.477473
H       1.849428    2.320472    0.828748
H       2.220607   -0.227835   -0.728055
H       2.066967   -0.124992    1.029153
H      -0.320699   -1.748523   -1.112340
H      -1.467624   -0.416309   -1.166888
H       1.204370   -0.680551   -2.657515
H      -0.424113   -0.586975   -3.324869
H       2.358552    1.022028   -2.494603
H       1.724467    2.573023   -3.127135
