17

O       0.028838    1.144163   -0.025696
C      -0.079008   -0.222355    0.358546
C      -1.473059   -0.682759    0.027754
C      -1.827693   -1.110237   -1.374203
C      -1.785022   -2.129910   -0.265818
N      -0.743140   -3.117698   -0.288789
C      -0.127428   -3.580559    0.835630
O      -0.277997   -3.132865    1.951200
H       0.861734    1.480523    0.317804
H       0.655349   -0.843895   -0.175177
H       0.098561   -0.355284    1.434332
H      -2.245590   -0.157106    0.580554
H      -2.791659   -0.837869   -1.787721
H      -1.017497   -1.133862   -2.096271
H      -2.735540   -2.494592    0.116381
H      -0.604596   -3.638111   -1.141742
H       0.557851   -4.422504    0.606935
