23

C      -0.746184    0.783605   -0.947969
C       0.314493   -0.145647   -0.378923
C       1.669177   -0.273107   -1.129870
C       2.419535   -0.212031    0.241927
C       3.630151    0.717974    0.307566
C       1.094874    0.304800    0.885919
C       2.831588   -1.594470    0.706844
C       2.796790   -2.033307    2.106730
O       1.820132   -2.494514    1.167774
H      -0.339087    1.786294   -1.125489
H      -1.134772    0.409362   -1.901996
H      -1.594924    0.886505   -0.262186
H      -0.106795   -1.139830   -0.206916
H       1.824911   -1.167986   -1.739752
H       1.883701    0.607714   -1.744652
H       3.377845    1.710679   -0.078160
H       3.986809    0.836180    1.337183
H       4.463871    0.331738   -0.291444
H       1.110409    1.394242    0.995613
H       0.788031   -0.138936    1.835532
H       3.571276   -2.072302    0.058554
H       3.499923   -2.787974    2.456159
H       2.421027   -1.359714    2.875445
