18

O      -0.037935    1.413373   -0.024894
C       0.020550    0.005912    0.094448
C      -1.379464   -0.573348    0.053490
C      -2.338942   -0.419467    1.277834
C      -2.762620   -1.915572    1.137592
C      -1.851084   -2.054125   -0.094898
O      -2.550459   -1.697502   -1.339148
C      -2.100967   -0.399441   -1.257787
N      -2.208445    0.573934   -2.046504
H      -0.545034    1.604139   -0.828240
H       0.633777   -0.448658   -0.701280
H       0.506889   -0.212628    1.051689
H      -1.791289   -0.209368    2.198939
H      -3.125690    0.327643    1.164973
H      -2.440895   -2.537403    1.976519
H      -3.816125   -2.115425    0.933937
H      -1.216397   -2.927052   -0.243484
H      -2.739038    0.342927   -2.887175
