17

C       0.169899    1.509695   -0.200389
C      -0.001781    0.010500    0.068699
C       0.475056   -0.844208   -1.103899
O       1.083931   -0.419669   -2.052383
C       0.701021   -0.477784    1.304264
N       0.150078   -1.131747    2.304812
C       1.171839   -1.392854    3.188289
C       2.356919   -0.896947    2.714595
N       2.045856   -0.317350    1.505362
H       1.217189    1.764286   -0.385419
H      -0.390953    1.803317   -1.091136
H      -0.186318    2.094329    0.651065
H      -1.057526   -0.236285    0.232881
H       0.240783   -1.926226   -0.999836
H       0.994065   -1.919001    4.113611
H       3.360061   -0.895565    3.107048
H       2.690339    0.141827    0.882942
