20

C       0.639588    0.491087   -0.721957
C      -0.282982    0.240572    0.449868
O      -0.089502    0.732555    1.541366
C      -1.459098   -0.709313    0.265216
C      -2.002742   -1.184615   -1.130465
C      -1.698819   -2.626387   -0.714739
N      -0.234327   -2.672311   -0.460958
C      -1.154984   -2.194888    0.602779
C      -1.176499   -2.795880    1.971854
H       0.991395   -0.468633   -1.114404
H       0.098509    0.990990   -1.533966
H       1.476407    1.114553   -0.403970
H      -2.268843   -0.349338    0.904178
H      -3.067993   -0.973336   -1.242490
H      -1.469086   -0.840830   -2.018823
H      -2.237144   -3.527437   -0.983813
H       0.002248   -3.637605   -0.231597
H      -0.329465   -2.437768    2.567444
H      -2.093755   -2.524426    2.504472
H      -1.122363   -3.889206    1.923954
