14

N      -0.231397    1.255819    0.351759
C      -0.150561   -0.098820    0.088538
C      -1.078482   -1.032169   -0.274175
O      -2.391357   -0.748609   -0.609354
C      -3.338418   -1.013354    0.335294
O      -4.496732   -0.818279    0.141153
C      -0.403878   -2.296988   -0.328140
C       0.881887   -2.039444    0.007719
O       1.046076   -0.696486    0.267477
H       0.608751    1.760070    0.097013
H      -1.048680    1.676202   -0.071515
H      -2.893889   -1.414526    1.264129
H      -0.831582   -3.250354   -0.594550
H       1.767773   -2.640527    0.111647
