25

C       0.614374    2.224040   -0.807484
C      -0.018178    0.847922   -0.533888
C       0.187534    0.485835    0.950665
C      -1.530873    0.947588   -0.827002
C       0.526156   -0.301840   -1.390603
C       0.936869   -0.218406   -2.851379
C       1.934133   -0.645543   -1.794226
C       3.169258    0.182774   -1.517343
O       2.178868   -2.031398   -1.680162
H       1.653507    2.276152   -0.474527
H       0.577086    2.490093   -1.868704
H       0.062197    2.995833   -0.260506
H      -0.245635    1.251203    1.604435
H      -0.288597   -0.470194    1.193107
H       1.251773    0.398235    1.191873
H      -1.711829    1.205991   -1.875655
H      -2.036216   -0.003027   -0.625476
H      -1.999939    1.715878   -0.202661
H      -0.016709   -1.220916   -1.177965
H       0.555345   -0.974053   -3.529769
H       1.072922    0.762626   -3.296084
H       3.009774    1.246060   -1.698966
H       3.513622    0.047792   -0.486812
H       3.981470   -0.140814   -2.181517
H       2.817832   -2.270749   -2.361461
