15

O       0.015777    1.432579   -0.066409
C       0.059934    0.019634   -0.040677
C       0.718209   -0.531645    1.219034
C      -0.086549   -1.327650    1.920621
C      -1.422405   -1.438946    1.243159
N      -2.120634   -0.112282    1.143250
C      -1.338920   -0.614347    0.002314
C      -2.212012   -2.634450    1.324318
N      -2.853130   -3.593966    1.406241
H      -0.585859    1.688943    0.646275
H       0.599284   -0.278558   -0.946172
H       1.711786   -0.216420    1.514301
H       0.128424   -1.811544    2.864371
H      -3.112750   -0.265293    0.965281
H      -1.851038   -0.899259   -0.908891
