17

O       0.090150    1.380258    0.003928
C       0.031114   -0.020677    0.152232
C      -1.402123   -0.531255   -0.027177
O      -1.926378    0.003829   -1.253244
C      -1.503384   -2.033813    0.041380
C      -1.775367   -2.716480    1.361508
C      -2.836492   -2.690922    0.292879
H      -0.500551    1.577399   -0.735542
H       0.685360   -0.533288   -0.578230
H       0.401946   -0.269103    1.152487
H      -2.030178   -0.082219    0.751721
H      -1.568098   -0.521703   -1.977880
H      -0.826149   -2.556582   -0.632706
H      -1.267737   -3.651962    1.567061
H      -1.918042   -2.088126    2.234500
H      -3.692405   -2.040828    0.438620
H      -3.061511   -3.612444   -0.232107
