16

C      -0.038265    1.384085    0.019547
O       0.035747   -0.022804    0.010791
C       0.625103   -0.532623   -1.156344
C       0.562648   -2.075915   -1.080121
C      -0.819483   -2.564443   -1.094994
C      -1.951684   -2.962794   -1.115191
C       1.357813   -2.666915   -2.160346
C       2.024557   -3.121072   -3.049653
H       0.959585    1.846098   -0.042897
H      -0.646725    1.764353   -0.815446
H      -0.505999    1.678350    0.961730
H       0.097845   -0.187933   -2.059009
H       1.679519   -0.225011   -1.239863
H       1.016224   -2.351802   -0.117569
H      -2.952511   -3.317291   -1.128133
H       2.607314   -3.537552   -3.833678
