21

C      -0.095941    1.554201   -0.240592
C      -0.008088    0.054555   -0.076710
C       1.345089   -0.667322   -0.092828
C       2.572612    0.059319   -0.208585
C       3.609226    0.667097   -0.289345
C       0.507953   -0.566849    1.178260
C       0.973408    0.106021    2.476281
C       0.713315   -1.241856    3.214277
C      -0.029057   -1.777385    1.953854
H       0.747805    2.056038    0.239484
H      -0.088833    1.835378   -1.298909
H      -1.020135    1.940711    0.203182
H      -0.797504   -0.503156   -0.577070
H       1.348415   -1.643059   -0.572869
H       4.523523    1.199906   -0.373093
H       1.999136    0.482459    2.482765
H       0.304725    0.908667    2.803328
H       1.636676   -1.788631    3.418883
H       0.130369   -1.189144    4.135943
H      -1.118722   -1.758082    2.061253
H       0.264890   -2.765818    1.589539
