19

C      -0.038333    1.679318    0.159251
C      -0.115651    0.153553   -0.021050
C       0.668039   -0.583253    1.075828
C      -1.581128   -0.274495    0.028691
O      -2.262943   -0.163376    1.030936
N      -2.083302   -0.797619   -1.138117
C      -3.477669   -1.173596   -1.247687
C      -4.183700   -0.412408   -2.285886
N      -4.721765    0.173027   -3.123889
H       1.004649    2.009344    0.159945
H      -0.561958    2.206750   -0.644165
H      -0.496589    1.966524    1.109365
H       0.306808   -0.109595   -0.999426
H       0.218347   -0.384043    2.051912
H       0.663931   -1.665931    0.915089
H       1.708517   -0.245714    1.092689
H      -1.504914   -0.833101   -1.961196
H      -3.592825   -2.243444   -1.459964
H      -3.924593   -0.974031   -0.268336
