20

C      -0.003258    1.597750   -0.166608
C       0.097343    0.091153   -0.006159
C       1.058662   -0.715695   -0.918979
C       1.417791   -1.616917    0.288346
C       2.851141   -2.074825    0.465485
O       3.125758   -2.984281   -0.589871
C       0.836553   -0.518496    1.248212
C       1.839629    0.359988    1.831926
N       2.637922    1.062665    2.288098
H       0.980282    2.072207   -0.097199
H      -0.431577    1.846349   -1.143490
H      -0.644289    2.041747    0.602503
H      -0.901213   -0.356645   -0.034794
H       0.635531   -1.198398   -1.801123
H       1.916652   -0.109187   -1.228233
H       0.760353   -2.490502    0.323754
H       3.526704   -1.207094    0.436064
H       2.972955   -2.551523    1.452161
H       4.056831   -3.220878   -0.548090
H       0.189762   -0.881880    2.050872
