27

C       0.138931    1.580086    0.004624
C       0.031385    0.056016    0.104265
C      -1.399170   -0.462384   -0.093706
C      -1.506238   -1.978663    0.016970
C      -1.294974   -2.664829    1.395127
C      -2.384125   -3.700224    1.006574
C      -3.323850   -4.232064    2.078978
C      -2.895482   -2.697341   -0.084839
C      -4.105161   -1.853498    0.313634
H       1.169593    1.920154    0.147473
H      -0.196757    1.937316   -0.975525
H      -0.481457    2.070996    0.762936
H       0.690111   -0.408139   -0.641895
H       0.404345   -0.274019    1.082588
H      -2.057001    0.014536    0.644778
H      -1.764906   -0.139756   -1.079243
H      -0.826944   -2.433732   -0.715006
H      -0.297471   -3.039814    1.639659
H      -1.629857   -2.021176    2.217290
H      -1.904981   -4.546081    0.499926
H      -3.827833   -3.421554    2.615372
H      -4.097469   -4.880682    1.652026
H      -2.771368   -4.822293    2.818984
H      -3.096325   -3.154701   -1.059668
H      -3.977743   -1.368711    1.287199
H      -4.291140   -1.064498   -0.422579
H      -5.008298   -2.470319    0.371295
