19

C       0.034309    1.502428   -0.361497
C       1.379888    2.070761    0.046845
C       2.152961    1.801739    1.099137
C       1.966746    0.785525    2.206946
C       0.651996    0.833216    2.987727
O      -0.420248    1.631152    2.497766
C      -0.586621    0.210519    2.453474
C      -0.560124   -0.477510    1.145974
C      -0.242653    0.050175   -0.038207
H      -0.741346    2.133488    0.085723
H      -0.061329    1.628357   -1.445725
H       1.734700    2.853357   -0.622191
H       3.069740    2.381177    1.180407
H       2.080531   -0.225480    1.795040
H       2.780937    0.911650    2.926625
H       0.758007    0.874970    4.072583
H      -1.307976   -0.173282    3.176209
H      -0.767331   -1.544529    1.204937
H      -0.197027   -0.631122   -0.884645
