18

C      -0.012654    1.530450    0.012835
C       1.417622    2.111657    0.072379
O       2.252534    1.509779    1.077231
C       2.232322    0.143723    0.844034
O       3.070513   -0.620861    1.718335
C       2.394724   -1.813500    1.777931
N       1.189833   -1.879151    1.374179
C       0.861460   -0.467925    1.079479
C      -0.051180   -0.020325   -0.048989
H      -0.562500    1.859426    0.902332
H      -0.519101    1.966288   -0.854975
H       1.905054    1.994629   -0.909021
H       1.391583    3.176451    0.311854
H       2.580177   -0.064716   -0.187601
H       2.973537   -2.633068    2.188294
H       0.467994   -0.038675    2.014556
H      -1.075147   -0.386771    0.065383
H       0.323979   -0.383328   -1.013689
