17

C       0.041846   -1.191396   -0.057843
C       0.034155    0.011535   -0.011254
C       0.006856    1.430701    0.065207
C       0.271169    2.336151   -1.114355
C       1.201648    2.430112    0.060318
C       0.534651    3.185857    1.180386
C       1.147219    3.880435    2.309198
O       0.473126    4.600127    1.264303
C      -0.685377    2.245540    1.182410
H       0.050610   -2.251937   -0.104113
H       0.682276    1.842402   -1.987763
H      -0.419976    3.146273   -1.332078
H       2.258059    2.206657   -0.021354
H       0.648088    3.882832    3.277698
H       2.227958    4.015113    2.343975
H      -1.644391    2.695939    0.910877
H      -0.793159    1.689390    2.115629
