17

C       0.030302    1.487806    0.078929
C      -0.652892    0.225824   -0.413562
O      -0.421073   -0.803945    0.543192
C      -0.971272   -2.001304    0.244607
C      -1.728956   -2.471663   -0.803996
C      -1.996747   -3.848916   -0.519539
C      -1.401296   -4.160988    0.673310
N      -0.773105   -3.018487    1.135625
H      -0.127789    2.302046   -0.634199
H      -0.373485    1.792915    1.048362
H       1.106468    1.327250    0.188585
H      -1.735151    0.378429   -0.529234
H      -0.255073   -0.087282   -1.389092
H      -2.053300   -1.911295   -1.664888
H      -2.568122   -4.525668   -1.136090
H      -1.362230   -5.078249    1.236685
H      -0.248043   -2.922697    1.986788
