17

C       0.049889    1.427668   -0.540131
C       0.024055    0.007519   -0.217260
C       0.022000   -1.161755    0.071616
C      -0.007070   -2.590646    0.384071
C      -1.378738   -3.197111    0.272524
C      -1.988160   -4.246480    0.911696
N      -3.256127   -4.454938    0.416715
C      -3.417086   -3.540132   -0.510793
N      -2.308392   -2.757368   -0.643492
H       0.799388    1.954016    0.060861
H       0.295034    1.594940   -1.594702
H      -0.919525    1.899033   -0.344766
H       0.695224   -3.113538   -0.282282
H       0.367344   -2.762271    1.400220
H      -1.583307   -4.863270    1.700357
H      -4.302508   -3.391780   -1.110736
H      -2.189919   -1.951517   -1.236066
