16

C       0.674431    1.162515   -0.702683
O       0.470465   -0.099872   -0.097892
C      -0.852915   -0.304557    0.347072
C      -1.785399   -0.612388   -0.831695
O      -2.976684   -0.449429   -0.806631
C      -0.836253   -1.481890    1.304685
C      -2.064043   -2.165367    1.720204
O      -1.180885   -2.759607    0.762415
H       1.724707    1.210185   -0.997270
H       0.050415    1.303207   -1.597683
H       0.459347    1.982478   -0.000995
H      -1.236082    0.585064    0.873323
H      -1.252103   -1.014897   -1.719672
H       0.030060   -1.483910    1.965467
H      -2.094111   -2.655616    2.691408
H      -3.020488   -1.831478    1.323543
