19

C       0.012317    1.535362    0.021664
C      -0.003586    0.023110   -0.048838
C       0.707122   -0.713553   -1.215779
C       0.318299   -2.133288   -0.732449
C       0.960980   -2.137099    0.683709
C       0.677071   -0.694758    1.150916
O       0.935182   -0.208510    2.219848
C      -1.179700   -1.935809   -0.511568
C      -1.364535   -0.680105   -0.094394
H       1.036592    1.918720   -0.017394
H      -0.550668    1.977208   -0.806283
H      -0.426483    1.878590    0.963381
H       0.271113   -0.457247   -2.184887
H       1.790116   -0.544927   -1.240463
H       0.609937   -2.967997   -1.369532
H       0.540911   -2.875236    1.369718
H       2.046009   -2.287950    0.650178
H      -1.922109   -2.720971   -0.579819
H      -2.279344   -0.224286    0.263168
