16

O      -0.019557    1.462767    0.010014
C       0.045922    0.025043    0.002572
C       0.706845   -0.512832   -1.282191
C      -0.026861   -0.033041   -2.553491
O       0.082065    1.356444   -2.763435
C       0.527648   -0.717276   -3.734981
N       0.958830   -1.290603   -4.639812
C       0.718714   -0.478768    1.197030
C       1.314072   -0.869287    2.164947
H       0.836545    1.793424    0.307615
H      -1.004258   -0.293099    0.017058
H       1.751108   -0.186963   -1.327486
H       0.701517   -1.606700   -1.245356
H      -1.084989   -0.342035   -2.478982
H      -0.088397    1.765145   -1.900327
H       1.823661   -1.220959    3.028703
