16

N      -0.042930    1.266889   -0.587607
C       0.017218    0.133224   -0.042173
O      -1.142815   -0.500754    0.269375
C      -1.095855   -1.776285    0.925010
C      -0.614099   -1.618333    2.370274
O       0.824514   -1.610244    2.267767
C       1.159684   -1.769041    0.916788
C       0.035204   -2.605207    0.319257
O       1.195119   -0.502246    0.238818
H       0.898662    1.610315   -0.763266
H      -2.099533   -2.189794    0.834941
H      -0.962499   -0.682410    2.814778
H      -0.927519   -2.459856    2.999253
H       2.176015   -2.153861    0.850778
H       0.049288   -3.622670    0.716675
H       0.028157   -2.624426   -0.770641
