10

O      -0.010736    1.312997    0.009280
N       1.321654    1.797699   -0.000934
C       2.095698    0.759005   -0.014013
N       1.373713   -0.410072   -0.013321
C       1.305629   -1.791232   -0.020018
N       0.049067   -2.154228   -0.010035
N      -0.773427   -1.026116    0.003978
C       0.057928   -0.028598    0.001381
H       3.171317    0.832864   -0.023953
H       2.161745   -2.443939   -0.031721
