11

O      -0.072147   -0.025907   -0.001034
C       0.019704    1.177922    0.007868
C       1.266406    1.945386    0.000992
C       1.355783    3.322781    0.011424
N       2.692785    3.600184   -0.000783
C       3.355953    2.397516   -0.017310
N       2.531697    1.386486   -0.016921
H      -0.887844    1.826619    0.022738
H       0.606030    4.096988    0.025690
H       3.111135    4.516159    0.002120
H       4.434691    2.341521   -0.029153
