19

C      -0.157234    1.643587   -0.134978
C      -0.065364    0.127401   -0.043988
C       1.162958   -0.592085   -0.642663
C       2.062439   -0.287347    0.596329
C       0.615296   -0.515901    1.185521
C       1.045897   -1.782503    0.354726
N       2.501525   -1.713508    0.688655
C       2.874670   -2.180152    2.019811
H       0.791408    2.123300    0.128780
H      -0.419668    1.962338   -1.149927
H      -0.926378    2.033495    0.540988
H      -1.023323   -0.336171   -0.311460
H       1.507665   -0.661689   -1.674619
H       2.743244    0.550170    0.756158
H       0.300637   -0.471848    2.228604
H       0.502525   -2.720143    0.221228
H       2.898643   -3.275164    2.023477
H       3.884259   -1.826055    2.254546
H       2.200144   -1.850167    2.828100
