18

C      -0.038139    1.480888   -0.008466
C       1.344277    0.812702   -0.006797
C       2.210372    0.237741    1.128724
C       1.542371   -1.156551    1.292539
C       0.065097   -0.745185    1.332264
C       0.082064   -0.000400   -0.000083
O      -0.057055   -0.915178   -1.076606
C       0.939657   -1.851549   -0.905740
N       1.731118   -1.991504    0.076043
H      -0.457955    1.940998    0.881866
H      -0.278084    1.997005   -0.932347
H       1.835365    0.904062   -0.969507
H       3.257277    0.173215    0.824076
H       2.166523    0.793732    2.072752
H       1.907082   -1.727620    2.150964
H      -0.632194   -1.585394    1.324840
H      -0.167589   -0.093439    2.179295
H       0.989716   -2.508618   -1.771309
