15

O      -0.040009    0.069855    0.144863
C      -0.024608    1.271820    0.133048
C      -1.267166    2.200451    0.163866
N      -0.699904    3.526839    0.507450
C      -0.389861    3.544896    1.900345
N       0.834467    3.448937    2.236890
C       1.550364    3.309330    0.985665
C       0.628776    3.578945   -0.147416
C       1.172899    2.171010   -0.015919
H      -1.737673    2.229745   -0.824922
H      -2.010753    1.865004    0.890201
H      -1.210608    3.596716    2.608437
H       2.595538    3.590153    0.986398
H       0.764135    4.241195   -0.994016
H       1.998883    1.797973   -0.608709
