18

N       0.157259    1.111679   -0.430402
C      -0.099072    0.046551    0.380615
O       0.611159   -0.241066    1.326053
C      -1.350231   -0.754783    0.058619
C      -1.896386   -0.893067   -1.382830
O      -1.826723   -2.329405   -1.315945
C      -1.203645   -2.276394   -0.026057
C      -0.057053   -3.159064    0.333521
C      -1.418580   -3.332984    0.999010
H       0.945584    1.697954   -0.208711
H      -0.450048    1.382109   -1.182976
H      -2.120023   -0.452469    0.775614
H      -2.919347   -0.538534   -1.550174
H      -1.242096   -0.496147   -2.171033
H       0.233319   -3.899820   -0.403894
H       0.747680   -2.728517    0.916711
H      -1.526212   -3.030714    2.035723
H      -2.017676   -4.187779    0.703416
