21

C      -0.037190    1.593974   -0.006542
C       0.004826    0.063976   -0.015668
C       0.731747   -0.501560   -1.239082
C       0.714451   -2.041754   -1.266610
O      -0.599910   -2.544622   -1.280826
C       1.459071   -2.571342   -2.485530
O       0.908804   -3.175205   -3.378091
O       2.764623   -2.286072   -2.459478
C       3.522874   -2.738541   -3.592632
H       0.971879    2.021664   -0.004614
H      -0.557475    1.981018   -0.889801
H      -0.559890    1.970897    0.878034
H       0.500328   -0.296858    0.895729
H      -1.012025   -0.341055    0.004806
H       0.252659   -0.135872   -2.157067
H       1.773119   -0.159491   -1.257562
H       1.235531   -2.413453   -0.371005
H      -0.708588   -2.970104   -2.144602
H       3.146217   -2.283372   -4.511684
H       4.549852   -2.427598   -3.403664
H       3.460552   -3.825427   -3.683980
