17

O       0.151652    1.368781   -0.256229
C       0.129815   -0.022059   -0.032506
C      -1.318907   -0.518760    0.113528
O      -2.077521   -0.043486   -1.009085
C      -1.419066   -1.995304    0.275497
C      -1.827662   -2.819718    1.276243
C      -1.667602   -4.160472    0.793545
C      -1.179947   -4.050257   -0.467716
O      -1.015826   -2.740600   -0.800864
H      -0.552428    1.532050   -0.898014
H       0.615554   -0.579120   -0.851677
H       0.690915   -0.224048    0.885869
H      -1.765753   -0.040642    0.990523
H      -1.897812   -0.640229   -1.745403
H      -2.201504   -2.511592    2.240126
H      -1.892368   -5.076289    1.316971
H      -0.909832   -4.763538   -1.228633
