17

O      -0.058054    1.430753    0.255912
C      -0.018911    0.052935    0.037018
C      -0.388252   -0.797265    1.206484
C      -1.329184   -0.704055    0.027286
C      -2.743886   -0.148402   -0.021721
C      -3.114309    0.109287   -1.442297
C      -3.174219   -1.327144   -0.936504
C      -1.776636   -1.884231   -0.813767
O      -1.257518   -2.923135   -1.117615
H      -0.345267    1.856127   -0.559121
H       0.769606   -0.302315   -0.626215
H       0.128150   -1.740589    1.348508
H      -0.677659   -0.273347    2.111119
H      -3.294150    0.243605    0.822378
H      -4.089682    0.551456   -1.620430
H      -2.355964    0.398505   -2.165040
H      -4.096231   -1.893252   -0.957337
