14

O      -0.016215    0.031972    0.089350
C       0.009804    1.229125   -0.003434
N      -0.991785    2.185421   -0.033474
C      -0.090736    3.338896   -0.014079
C       0.362868    3.808248    1.398157
C       1.537247    2.783887    1.361942
C       1.098258    2.321088   -0.062778
H      -1.950966    2.105974    0.278097
H      -0.290800    4.089143   -0.779772
H       0.701421    4.847064    1.413491
H      -0.381131    3.674026    2.186731
H       2.518869    3.261003    1.366185
H       1.533577    2.000169    2.122208
H       1.839352    2.268477   -0.857373
