16

O       1.105020    1.381777   -0.453811
C       0.262569    0.382287    0.037538
C      -0.046048   -0.632991   -0.999038
N      -0.314524   -1.416775   -1.803679
C       0.885099   -0.286630    1.252686
N       2.039806    0.081775    1.653107
C       2.367863   -0.771809    2.810354
C       1.045884   -1.511986    3.168223
N       0.277260   -1.316235    1.928523
H       1.932630    1.281310    0.051449
H      -0.700956    0.826689    0.335696
H       3.154274   -1.477946    2.518574
H       2.754838   -0.171486    3.637250
H       1.192527   -2.573186    3.382157
H       0.538961   -1.051678    4.026600
H      -0.727840   -1.399802    1.935360
