15

O       0.135305    1.301504   -0.294702
C       0.139777   -0.072286   -0.027908
C       0.091425   -0.503616    1.450180
O       0.745773   -0.368625    2.431767
O      -1.107227   -1.159394    1.306169
C      -1.248589   -0.729972   -0.083900
C      -2.512437    0.038926   -0.477429
O      -2.805761   -0.927963   -1.511771
C      -1.704937   -1.767950   -1.112015
H       0.960646    1.677291    0.031474
H       0.903996   -0.617317   -0.600147
H      -3.274743    0.058286    0.310268
H      -2.351390    1.045193   -0.874923
H      -1.014018   -1.974209   -1.937978
H      -2.034793   -2.712031   -0.661274
