23

C       0.307220    1.518130   -0.131285
C      -0.062336    0.046232    0.012037
C      -1.461093   -0.251613    0.644782
C      -0.794016   -1.216307    1.665882
C       0.613732   -0.755971    1.182331
C       1.601319   -1.775079    0.574896
C       1.311620   -1.809566   -0.923893
C      -0.075663   -2.195009   -1.366552
C       0.292172   -0.734247   -1.253792
H       1.357635    1.637016   -0.422292
H      -0.306242    2.008045   -0.897123
H       0.156469    2.057833    0.809778
H      -1.902834    0.629638    1.118695
H      -2.205366   -0.687582   -0.025989
H      -1.014162   -1.014238    2.717182
H      -0.998019   -2.275219    1.483478
H       1.104564   -0.117742    1.922115
H       2.633717   -1.443858    0.735026
H       1.512696   -2.762507    1.044660
H       2.136046   -2.022049   -1.596488
H      -0.185495   -2.595405   -2.369161
H      -0.759248   -2.635366   -0.649008
H       0.363562   -0.170673   -2.179015
