19

C       0.105246    1.714533    0.055573
C       1.585197    1.448842    0.435159
C       1.242916   -0.079132    0.510220
C      -0.018069    0.220692   -0.347517
C       2.220634   -1.086405    0.023926
C       2.322791   -1.816177   -1.135545
N       3.441335   -2.620806   -1.125409
C       4.020639   -2.386502    0.027032
N       3.325928   -1.470377    0.762737
H      -0.502942    1.948037    0.934312
H      -0.093618    2.464468   -0.712627
H       2.260766    1.650367   -0.400737
H       1.981847    1.926775    1.334691
H       0.933259   -0.319514    1.535672
H      -0.937053   -0.312709   -0.095613
H       0.188812    0.080195   -1.411916
H       1.646059   -1.814567   -1.976233
H       4.932044   -2.841589    0.385852
H       3.571604   -1.127086    1.676354
