21

C      -0.097011    1.571483    0.180667
C       0.079938    0.065493    0.179856
C       1.333967   -0.684182   -0.197370
C       2.607171   -0.043180    0.338988
O       2.971978    1.170056   -0.288877
C       1.999707   -0.020702    1.783917
C       0.768083   -0.759121    1.239671
C       0.108960   -1.916469    1.928280
O      -0.609465   -1.525702    3.093691
H       0.811517    2.094572    0.478167
H      -0.352082    1.920530   -0.825617
H      -0.911341    1.868852    0.851999
H      -0.794825   -0.458490   -0.207415
H       1.318694   -1.444002   -0.970886
H       3.436854   -0.761495    0.294331
H       3.801765    1.468807    0.097229
H       2.577206   -0.613569    2.497659
H       1.820970    0.968850    2.212644
H      -0.541548   -2.449303    1.214892
H       0.858954   -2.633627    2.282229
H      -1.239065   -0.848218    2.825374
