20

C      -0.041578    1.578084   -0.113424
C      -0.018507    0.049757   -0.002956
O       0.728500   -0.245069    1.173752
C      -1.432560   -0.583634    0.061315
C      -2.250458   -0.124979    1.249097
C      -3.243868    1.005535    1.125338
C      -3.730033   -0.411874    1.289587
C       0.685715   -0.517452   -1.181511
N       1.225972   -0.991348   -2.086804
H       0.979878    1.960039   -0.165163
H      -0.584341    1.893109   -1.007550
H      -0.531300    1.994030    0.768339
H       0.818658   -1.202450    1.246045
H      -1.961260   -0.368574   -0.874735
H      -1.303136   -1.674286    0.094351
H      -1.723942   -0.195433    2.195659
H      -3.352836    1.690179    1.959187
H      -3.367330    1.470757    0.152740
H      -4.175871   -0.896181    0.426710
H      -4.171116   -0.701866    2.236596
