16

C       0.039755    1.559628   -0.011283
C       0.068743    0.056541    0.115914
N       1.264034   -0.778071   -0.184398
C       2.422241   -0.065738    0.334701
N       3.416106    0.285519   -0.344192
C       1.952524   -0.067316    1.788837
C       0.667708   -0.705206    1.244233
C       0.018190   -1.825177    1.853538
N      -0.518820   -2.704426    2.379658
H       0.900748    2.048945    0.447242
H       0.023587    1.837106   -1.069627
H      -0.869022    1.950357    0.456332
H      -0.809508   -0.430885   -0.301519
H       4.123248    0.735331    0.239193
H       2.529636   -0.761014    2.404558
H       1.861371    0.889508    2.308158
