18

C      -0.424285    1.367520    0.156478
O       0.939743    0.960451   -0.021870
C      -0.056398   -0.045909    0.042223
C      -0.034807   -1.160848    1.096614
C      -0.436233   -2.171608   -0.011624
C      -1.961445   -2.270483   -0.300831
C      -1.825131   -1.224134   -1.449533
C      -0.326553   -1.034396   -1.099761
H      -0.661412    1.789437    1.132905
H      -0.871225    1.884652   -0.692368
H       0.980320   -1.321935    1.471578
H      -0.713868   -1.062383    1.949209
H       0.134575   -3.098472   -0.061876
H      -2.291036   -3.256347   -0.636477
H      -2.599451   -1.969189    0.535361
H      -1.972733   -1.664606   -2.438594
H      -2.449379   -0.328778   -1.378709
H       0.405301   -1.025434   -1.908612
