23

C      -0.336509    1.157131   -1.454797
C       0.117335   -0.222129   -0.982470
C       1.569385   -0.613630   -1.393558
C       2.048681   -0.435990    0.078716
C       2.917035    0.795364    0.328674
C       0.546758   -0.365522    0.516503
C       0.110365    0.682893    1.551087
C      -1.320617    0.632120    1.832165
C      -2.502158    0.566797    2.046401
H       0.402682    1.935253   -1.235932
H      -0.488018    1.153532   -2.539960
H      -1.280649    1.448184   -0.983667
H      -0.639652   -0.954919   -1.276506
H       1.656245   -1.641597   -1.754798
H       2.045546    0.046623   -2.125698
H       2.565957   -1.311119    0.484877
H       2.474287    1.707689   -0.084218
H       3.087919    0.962124    1.398023
H       3.896521    0.668067   -0.145381
H       0.231682   -1.345380    0.887696
H       0.666835    0.518531    2.483629
H       0.376517    1.691742    1.215836
H      -3.544087    0.519044    2.244112
