17

C       0.095099    1.515352    0.054390
C      -0.015505    0.012524   -0.009021
C      -0.866996   -0.771291    0.937097
N       0.595210   -0.803797    1.075713
C       1.232086   -1.974576    0.429305
C       0.952654   -1.829998   -1.062303
C       0.271334   -0.709133   -1.285840
C       2.677455   -1.998465    0.716660
N       3.815043   -2.038448    0.913195
H       1.078682    1.850759   -0.289421
H      -0.666224    1.984500   -0.578403
H      -0.046194    1.867073    1.078986
H      -1.373957   -0.269451    1.757413
H      -1.376468   -1.650537    0.548700
H       0.806697   -2.900762    0.838150
H       1.264996   -2.567545   -1.790150
H      -0.054268   -0.345591   -2.252892
