19

C      -0.007434    1.364681   -0.071631
O      -0.021881   -0.043020   -0.039660
C       0.599175   -0.609569   -1.155720
C       0.544447   -2.122326   -1.048385
O       0.029162   -2.708368   -0.124259
C       1.187720   -2.899964   -2.179379
N       1.003740   -4.249204   -2.065550
N       1.790792   -2.246472   -3.100441
C       2.397724   -3.012962   -4.172263
H       1.019199    1.763956   -0.086718
H      -0.540588    1.760316   -0.950756
H      -0.509732    1.713558    0.833479
H       0.118239   -0.311502   -2.102526
H       1.653997   -0.304983   -1.253280
H       0.633045   -4.557707   -1.178513
H       1.597878   -4.881928   -2.572165
H       2.837040   -2.334901   -4.907397
H       3.202718   -3.671925   -3.806814
H       1.664794   -3.651327   -4.690221
