18

C      -0.129199    1.456856    0.138203
C      -0.075703   -0.051079    0.288676
O      -1.323668   -0.579279   -0.199625
C      -1.447791   -1.923028   -0.125377
O      -0.604660   -2.677360    0.306465
N      -2.670377   -2.301469   -0.606722
C      -3.051007   -3.688490   -0.712847
C      -4.207805   -4.049436    0.209451
O      -5.039821   -4.877936   -0.046352
H       0.804982    1.897506    0.498431
H      -0.262621    1.741116   -0.909440
H      -0.955146    1.878958    0.717687
H       0.745817   -0.490048   -0.285914
H       0.055064   -0.353665    1.332182
H      -3.260635   -1.582046   -0.990468
H      -3.307637   -3.977267   -1.737775
H      -2.178613   -4.276034   -0.400366
H      -4.214881   -3.474315    1.163959
