17

O      -0.014456    1.378137   -0.006666
C       0.031489    0.004561    0.022041
C       0.602849   -0.985908   -1.126469
C      -0.018031   -1.844567   -0.008087
C       0.686395   -0.931904    1.058501
O      -0.485898   -3.122654    0.259321
C      -1.673114   -2.861233    1.054000
O      -1.939077   -1.447096    1.099833
C      -1.214313   -0.924524   -0.000716
H       0.872752    1.721337    0.145321
H       0.088943   -0.965311   -2.089481
H       1.689071   -0.999037   -1.233774
H       1.778434   -0.961692    1.074161
H       0.250997   -0.931080    2.056993
H      -2.505269   -3.402273    0.585412
H      -1.519762   -3.203270    2.083140
H      -1.832536   -0.868534   -0.903419
