14

O       0.107263    1.303904    0.022617
C       0.080912   -0.032312    0.002711
N       0.196514   -0.704965   -1.129913
N       0.121853   -1.996748   -0.685187
C       0.165094   -3.080942   -1.632750
C      -1.056978   -3.103769   -2.555959
O      -1.203077   -3.940947   -3.402748
C      -0.035777   -2.012382    0.649829
N      -0.062447   -0.780193    1.129093
H       0.010728    1.569482    0.945264
H       1.064610   -2.999947   -2.251631
H       0.215678   -4.028207   -1.088173
H      -1.789503   -2.288700   -2.378217
H      -0.118944   -2.924035    1.222808
