19

C      -0.045754    1.517454   -0.166720
C       1.509184    1.518619    0.065687
C       1.342555    0.174585    0.805837
C       2.073559   -1.159737    0.819642
O       1.092959   -1.982833    1.519226
C       0.084646   -1.104565    2.020570
C       0.843384    0.193149    2.273435
O      -0.843284   -0.734601    0.992681
C      -0.003459   -0.019627    0.085356
H      -0.585421    2.058305    0.612423
H      -0.404893    1.847517   -1.142939
H       2.052362    1.408346   -0.877095
H       1.941808    2.350570    0.624593
H       2.234218   -1.580383   -0.178747
H       3.023159   -1.165381    1.371091
H      -0.459800   -1.611392    2.814661
H       1.651893    0.101849    3.002836
H       0.189069    1.024922    2.532027
H       0.075238   -0.571363   -0.858171
