24

C      -0.482321    1.591698    0.341784
C      -0.218950    0.096144    0.500325
N      -1.441281   -0.654456    0.205559
C      -1.581024   -1.164035   -1.155445
C      -1.386352   -2.108135   -0.020814
C      -0.135886   -2.947585    0.151686
C      -0.020604   -3.523037    1.574575
C       1.278392   -4.288928    1.785665
O      -0.058103   -2.500108    2.567437
H       0.414046    2.169293    0.588300
H      -0.767633    1.831525   -0.687925
H      -1.296199    1.910974    0.998698
H       0.623597   -0.195020   -0.149056
H       0.084905   -0.136517    1.525726
H      -2.555319   -1.049587   -1.624232
H      -0.735713   -1.023994   -1.829800
H      -2.285184   -2.608043    0.347106
H      -0.167686   -3.783929   -0.559181
H       0.762542   -2.367191   -0.080610
H      -0.867973   -4.213581    1.728825
H       2.136417   -3.622845    1.648970
H       1.320171   -4.693913    2.800071
H       1.362667   -5.116228    1.074788
H      -0.898464   -2.036351    2.486305
