23

C       0.086799    1.607754    0.097556
C      -0.021069    0.072691   -0.003811
C       0.479544   -0.451617   -1.364655
C       1.928577   -0.189964   -1.683581
C       2.981019   -0.352492   -0.884696
C       3.063018   -0.850872    0.530627
C       1.854227   -0.995574    1.427856
C       2.207065   -1.638150    2.751273
C       0.597419   -0.603519    1.197652
H       1.129244    1.929540    0.023107
H      -0.479356    2.091688   -0.706615
H      -0.309725    1.966329    1.052568
H      -1.092006   -0.169973    0.031316
H       0.282581   -1.531260   -1.413194
H      -0.138440   -0.000452   -2.150172
H       2.129629    0.156360   -2.695514
H       3.961299   -0.132287   -1.306205
H       3.580658   -1.825686    0.503508
H       3.781809   -0.210867    1.069374
H       2.599167   -2.653697    2.607834
H       2.993895   -1.074661    3.270252
H       1.341944   -1.700650    3.415617
H      -0.106477   -0.764002    2.014067
