20

C      -0.033794    1.512988    0.029021
C       0.007899   -0.000122    0.035692
C      -1.227308   -0.679465   -0.536179
C      -1.221915   -2.211459   -0.455010
O      -0.378636   -2.677105   -1.532619
C      -0.737078   -2.709647    0.882340
C       0.156246   -2.018185    1.597068
C       0.708871   -0.720659    1.149213
N       1.329178   -0.583214   -0.200854
H       0.887166    1.921373    0.452104
H      -0.128209    1.892299   -0.995123
H      -0.884196    1.889776    0.608293
H      -2.109630   -0.308743   -0.000168
H      -1.352916   -0.399880   -1.588875
H      -2.244433   -2.573297   -0.634725
H      -0.200873   -3.611652   -1.380970
H      -1.116948   -3.662316    1.241252
H       0.500236   -2.396729    2.556299
H       1.220537   -0.136513    1.909509
H       1.222223   -1.460626   -0.708297
