21

C      -0.009970    1.440615    0.870801
C       1.156781    0.996499    0.021655
C       2.249162    0.181554    0.695463
C       1.509777   -0.893938    1.520639
C       2.318093   -2.131838    1.968308
O       2.149011   -1.816278    3.363549
C       1.383338   -0.639677    3.048104
C       0.197302   -1.140281    0.745422
C      -0.116656    0.176142    0.052672
H       0.056981    1.377633    1.952087
H      -0.572018    2.299875    0.521426
H       1.418310    1.595955   -0.843150
H       2.863098   -0.305533   -0.073848
H       2.928466    0.777839    1.315204
H       1.874206   -3.102708    1.709349
H       3.376018   -2.135443    1.672559
H       1.865987    0.275223    3.417579
H       0.364184   -0.692190    3.454411
H       0.360799   -1.917564   -0.012941
H      -0.604530   -1.498245    1.401173
H      -0.799975    0.166921   -0.789126
