20

C      -0.119017    1.499592    0.050628
C      -0.004296   -0.013190    0.037168
C      -1.243320   -0.731919   -0.463030
C       1.354865   -0.624834   -0.291948
C       0.825350   -0.671416    1.108047
C       1.446674    0.005613    2.337405
N       1.293779   -0.980097    3.422833
C       0.717088   -1.977585    2.897052
O       0.387329   -1.957837    1.583919
H       0.799518    1.981034    0.399339
H      -0.324393    1.874895   -0.958347
H      -0.938217    1.830399    0.699729
H      -1.458067   -0.448879   -1.499682
H      -1.126474   -1.816376   -0.418862
H      -2.118256   -0.467226    0.141866
H       1.366004   -1.557104   -0.847063
H       2.192190    0.036924   -0.495807
H       2.507762    0.241782    2.197226
H       0.939314    0.937254    2.611986
H       0.446220   -2.893016    3.411188
