19

C       0.042081    1.466601    0.097774
N       0.077759    0.024321   -0.007387
C       0.628717   -0.621017   -1.089074
O       1.135907   -0.009371   -2.023570
C       0.574089   -2.086690   -1.033072
C       1.001428   -2.872433   -2.040322
N       0.766410   -4.216340   -1.828000
C       0.445902   -4.390957   -0.398657
C      -0.036774   -2.981640    0.037248
H       0.569045    1.819557    0.992445
H       0.539385    1.863738   -0.788110
H      -0.986556    1.846248    0.128935
H      -0.346376   -0.524590    0.720320
H       1.441195   -2.530849   -2.967618
H       1.405863   -4.877698   -2.243760
H      -0.310116   -5.167328   -0.256512
H       1.343592   -4.679423    0.166489
H       0.289165   -2.749415    1.057049
H      -1.134846   -2.926059    0.028249
