21

C      -0.105748    1.505470   -0.002068
C       0.098705   -0.007698    0.044260
C       1.082620   -0.630111   -0.983335
C       2.434373    0.042041   -0.630043
C       2.297513   -0.766493    0.666873
C       1.555503   -1.893077   -0.139734
C       0.604102   -2.109405    1.050271
O       1.098755   -2.989133    2.037525
C       0.832430   -0.586690    1.278542
H       0.802369    2.065870    0.234496
H      -0.447841    1.824949   -0.993262
H      -0.869096    1.806165    0.723339
H      -0.886765   -0.479072   -0.054155
H       0.743486   -0.721924   -2.015787
H       3.252588   -0.356944   -1.237624
H       2.502968    1.132173   -0.607281
H       3.127698   -0.937503    1.352623
H       2.065347   -2.704751   -0.659908
H      -0.426044   -2.429763    0.867232
H       2.040970   -2.823425    2.149640
H       0.657914   -0.128848    2.252708
