17

C       0.020892    1.392953    0.075436
C       1.458215    1.827628   -0.354555
N       2.178722    0.571285   -0.171213
C       3.362402    0.140959   -0.905465
C       3.219465   -1.379616   -0.913098
O       3.026729   -1.943135    0.379310
C       1.862355   -1.727801   -0.440155
C       1.205513   -0.426693   -0.160591
N      -0.014991   -0.083732   -0.035794
H      -0.175764    1.676307    1.117177
H      -0.761445    1.845878   -0.539322
H       1.490729    2.147058   -1.409286
H       1.863804    2.636011    0.259904
H       3.365190    0.516649   -1.942057
H       4.289699    0.467524   -0.421298
H       3.781186   -1.981612   -1.621365
H       1.296145   -2.602836   -0.734558
