23

C       0.158993    1.556780   -0.009512
C       0.039413    0.029351   -0.033857
C      -1.401537   -0.533317    0.053688
C      -2.171607   -0.118253    1.325402
C      -1.448521   -0.383531    2.650555
C      -2.236793   -0.093670   -1.170520
O      -1.563524   -0.494392   -2.355834
C      -1.304579   -2.060978   -0.033642
O      -2.004438   -2.829685    0.576374
H       1.211794    1.851909   -0.055508
H      -0.343693    2.016210   -0.865938
H      -0.263831    1.990853    0.901797
H       0.490917   -0.346046   -0.957752
H       0.629670   -0.390414    0.789328
H      -2.422686    0.946895    1.254066
H      -3.120380   -0.664472    1.330105
H      -1.203732   -1.443179    2.762113
H      -0.522667    0.193271    2.739644
H      -2.090141   -0.102609    3.491289
H      -3.232674   -0.556570   -1.102783
H      -2.376256    0.997323   -1.139715
H      -2.118549   -0.275395   -3.109563
H      -0.528457   -2.434503   -0.735776
