16

C       0.105732    1.488451    0.058089
C       0.014106   -0.000160   -0.001699
C      -0.060363   -0.781955   -1.085670
C      -0.112735   -2.257467   -0.765730
C       0.216980   -2.243349    0.725395
O       0.721951   -3.114398    1.386268
C      -0.048709   -0.829526    1.263415
O       0.877731   -0.462278    2.258130
H       0.981247    1.789389    0.643578
H       0.180075    1.927724   -0.940228
H      -0.769361    1.918673    0.561654
H      -0.081922   -0.411322   -2.104884
H      -1.105869   -2.701173   -0.928155
H       0.601428   -2.876498   -1.319557
H      -1.077402   -0.802376    1.674591
H       1.207323   -1.293632    2.628944
