19

O       0.167339    1.359257    0.236640
C       0.050365   -0.037991    0.000973
C      -1.390643   -0.480930   -0.085961
C      -2.106524   -0.975664    1.125931
N      -1.669366   -1.920968    0.086488
C      -2.732593   -2.272948   -0.876401
C      -3.380774   -0.961174   -1.378072
C      -2.257092    0.082478   -1.207865
H      -0.275017    1.547665    1.071096
H       0.555884   -0.217861   -0.954678
H       0.571033   -0.630861    0.767042
H      -1.573518   -1.072361    2.068896
H      -3.167336   -0.762148    1.232779
H      -2.251257   -2.808090   -1.702327
H      -3.448872   -2.958593   -0.413032
H      -3.728810   -1.040860   -2.410788
H      -4.252216   -0.696135   -0.772235
H      -2.633267    1.086106   -0.993872
H      -1.648344    0.156098   -2.116892
