14

C      -0.030973    1.384017    0.130473
N       0.028865   -0.054462   -0.016174
C      -0.084878   -0.809261   -1.120784
N       0.048144   -2.093462   -0.824286
C       0.238126   -2.048432    0.516056
O       0.454346   -3.136417    1.293884
C       0.053694   -4.365097    0.829003
O       0.282494   -5.353262    1.450262
N       0.237064   -0.849088    1.067887
H       0.913028    1.759001    0.532783
H      -0.211558    1.827417   -0.850168
H      -0.841810    1.656881    0.809825
H      -0.253464   -0.396709   -2.104157
H      -0.473739   -4.300741   -0.132068
