16

N      -0.078569   -1.121713    0.029157
C      -0.023026    0.032157    0.026596
C      -0.006631    1.480144    0.035326
N      -0.822680    2.106070    1.061622
C      -0.658144    3.552725    0.745911
C       0.365773    3.466617   -0.377982
C       1.332724    2.270624   -0.077221
N       1.424489    1.883855   -1.528471
C      -0.012181    2.282083   -1.325176
H      -1.789345    1.806884    0.997071
H      -1.595823    4.019256    0.422459
H      -0.287869    4.102775    1.617847
H       0.776397    4.379090   -0.810650
H       2.177254    2.222232    0.609960
H       1.909805    2.624069   -2.042079
H      -0.756479    2.243114   -2.121421
