20

C       0.021514    1.509076   -0.002734
C       0.022190    0.052626   -0.008832
C       0.037033   -1.151666   -0.014143
C       0.019466   -2.610021   -0.021599
C      -1.403178   -3.198759    0.044602
C      -1.411866   -4.730099   -0.032012
C      -2.821882   -5.308326    0.086377
O      -0.759491   -5.197799   -1.212907
H       1.041656    1.908185   -0.033947
H      -0.515881    1.913041   -0.868167
H      -0.459643    1.906345    0.898173
H       0.512386   -2.993555   -0.922253
H       0.605786   -2.992060    0.825436
H      -1.893487   -2.875100    0.969962
H      -2.002565   -2.792069   -0.781459
H      -0.795341   -5.126804    0.785295
H      -3.467565   -4.924086   -0.713581
H      -2.792650   -6.398432    0.007801
H      -3.283124   -5.039510    1.042145
H      -1.295444   -4.926317   -1.966965
