19

O       0.079711    1.388831    0.187978
C      -0.033840   -0.007085    0.100955
C      -0.448560   -0.789575    1.291522
C      -1.536997   -0.048709    2.080283
C      -2.464745   -0.096315    0.824248
C      -3.095049    1.206113    0.300788
C      -4.161640    1.694583    1.166994
C      -5.034203    2.069454    1.904657
C      -1.337131   -0.752424    0.013772
H      -0.029983    1.750270   -0.697968
H       0.764400   -0.478340   -0.474448
H       0.155944   -1.600983    1.679045
H      -1.933055   -0.622607    2.919117
H      -1.255364    0.947093    2.430272
H      -3.262225   -0.824985    0.992978
H      -2.315174    1.968609    0.209256
H      -3.493125    1.034463   -0.708726
H      -5.805579    2.413683    2.547581
H      -1.491277   -1.520207   -0.737381
