15

O      -0.255047    1.450846    1.068847
C       0.012147    1.607228   -0.090882
C       1.438474    1.585380   -0.634928
C       1.671401    2.736542   -1.604811
O       0.921784    2.965478   -2.521435
C       2.882928    3.621247   -1.313550
O       3.178249    4.508145   -2.369418
C       2.326985    5.548447   -2.559133
O       2.454350    6.312120   -3.463292
H      -0.762125    1.783371   -0.864551
H       2.147917    1.564384    0.195588
H       1.548601    0.658363   -1.214346
H       2.697861    4.149989   -0.364655
H       3.772109    3.001857   -1.164139
H       1.547229    5.615736   -1.778346
