18

O       0.018884   -0.084203    0.346158
C       0.009607    1.110554    0.106845
C      -1.352754    1.774905   -0.161849
O      -1.410314    3.175302   -0.362909
C      -0.795028    3.577859   -1.549576
C      -0.163848    4.932506   -1.541224
C       0.707213    3.691180   -1.505172
C       1.329089    3.272787   -0.187661
N       1.158818    1.845825    0.075749
H      -1.790751    1.233373   -1.013373
H      -1.974923    1.560445    0.710844
H      -1.280157    3.219394   -2.457568
H      -0.196102    5.517015   -2.453254
H      -0.253642    5.509706   -0.627296
H       1.265057    3.428948   -2.398772
H       2.404532    3.469245   -0.193146
H       0.900209    3.865165    0.627112
H       1.975980    1.295925    0.296962
