21

O      -0.094701    1.403677    0.137732
C       0.012422    0.008072   -0.031224
C       0.228216   -0.554342   -1.468777
C      -0.871241   -1.610188   -1.163350
C      -1.370384   -0.693049   -0.007901
C      -1.849816   -1.241159    1.335916
C      -0.687187   -1.777096    2.176530
O       0.370186   -0.832390    2.255390
C       0.965780   -0.633602    0.989960
H       0.787423    1.772649    0.253814
H      -0.108616    0.178594   -2.206001
H       1.226309   -0.908944   -1.742325
H      -1.586481   -1.834281   -1.956811
H      -0.450364   -2.553276   -0.803203
H      -2.103201    0.011814   -0.411782
H      -2.330419   -0.431358    1.896445
H      -2.602607   -2.026587    1.193727
H      -1.004884   -1.970771    3.204798
H      -0.305340   -2.725334    1.759768
H       1.341835   -1.594887    0.600805
H       1.835718    0.015700    1.149753
