17

C       0.043953    1.567807    0.027286
C      -0.044702    0.042990    0.075622
O       0.409793   -0.546504   -1.137027
C       0.833630   -0.543758    1.190414
C       0.714729   -2.032131    1.293526
N      -0.359191   -2.617219    1.758700
O      -0.059351   -3.982804    1.666220
C       1.171899   -4.052851    1.161007
N       1.714214   -2.906237    0.908302
H       1.076022    1.886152   -0.150638
H      -0.578366    1.962875   -0.783362
H      -0.306639    2.016138    0.962674
H      -1.085632   -0.255464    0.275410
H      -0.168794   -0.252697   -1.847508
H       1.879829   -0.297683    0.990907
H       0.545185   -0.088650    2.142396
H       1.589266   -5.038687    1.016967
