16

C      -0.354929    1.538866   -0.057343
C       0.072912    0.081510   -0.056388
O       1.124407   -0.102479   -1.051454
C       2.080305   -0.833651   -0.436798
N       1.963193   -1.142804    0.785420
C       0.705397   -0.513658    1.247736
C       1.004054    0.469944    2.381189
H       0.468549    2.198011    0.228158
H      -0.694989    1.828512   -1.055332
H      -1.182573    1.694531    0.641273
H      -0.765461   -0.544945   -0.382224
H       2.915301   -1.103496   -1.074963
H       0.052964   -1.300556    1.641713
H       1.681781    1.263978    2.054173
H       0.087877    0.929820    2.764330
H       1.489955   -0.064456    3.201376
