20

C      -0.027670    1.555936    0.009772
C       0.008518    0.044588   -0.039949
C       1.072130   -0.678467   -0.932013
C       1.152847   -1.679668    0.211675
C      -0.157405   -2.476772    0.597337
C      -0.089037   -1.620185    1.904282
N       0.720163   -0.594727    1.193287
C      -1.351955   -1.936540   -0.140961
C      -1.305933   -0.622614   -0.371422
H       0.963628    1.956306    0.235669
H      -0.362952    1.967034   -0.949576
H      -0.719197    1.903449    0.785413
H       0.762988   -1.000055   -1.927445
H       2.002566   -0.105449   -0.980938
H       2.088205   -2.206103    0.421546
H      -0.110299   -3.565375    0.658402
H      -1.035290   -1.293062    2.343845
H       0.549573   -2.065634    2.674711
H      -2.209676   -2.564236   -0.356778
H      -2.110438   -0.049528   -0.821122
