17

C      -0.266708    1.173980   -1.413702
C       0.194217    0.076247   -0.429077
C      -0.969326   -0.220044    0.521468
O      -0.994185    0.103555    1.676901
C       0.523591   -1.205347   -1.186947
O      -0.272801   -1.717207   -1.943386
C       1.860423   -1.853588   -0.958993
C       3.107050   -1.059290   -1.007073
O       2.580977   -1.516598    0.227236
H       0.543514    1.443553   -2.097346
H      -1.108801    0.816882   -2.011648
H      -0.569330    2.071708   -0.868478
H       1.036364    0.406732    0.180453
H      -1.820448   -0.741889    0.032294
H       1.896861   -2.899237   -1.258786
H       4.017896   -1.548178   -1.347243
H       3.059225    0.016081   -1.170944
