17

C       0.082967   -1.140733   -0.001886
C       0.016128    0.060702   -0.014518
C      -0.067101    1.489714   -0.014369
C      -1.219653    2.201102    0.624431
C      -1.315210    3.438117    0.130924
C      -0.141450    3.698090   -0.784911
C       1.151288    3.745385    0.129025
C       1.308918    2.249608   -0.097194
C       0.339737    2.281587   -1.245213
H       0.138135   -2.200737    0.004735
H      -1.831399    1.746694    1.392405
H      -2.006165    4.206679    0.454542
H      -0.249629    4.492702   -1.520797
H       1.959790    4.281123   -0.375389
H       1.029859    4.126612    1.147592
H       2.212256    1.664977    0.022685
H       0.396040    1.868822   -2.244774
