20

C       0.082881    1.436980   -0.061115
O      -0.227743    0.068406   -0.169475
C       0.528374   -0.612757   -1.138009
C       2.017801   -0.847091   -0.796519
C       2.420370   -2.099613   -1.623361
C       1.095915   -2.656639   -2.219469
C      -0.012178   -2.030082   -1.362161
O      -0.108221   -2.654279   -0.088303
H       1.106867    1.607728    0.302776
H      -0.029394    1.958730   -1.025948
H      -0.618079    1.871645    0.655933
H       0.456294   -0.080474   -2.103896
H       2.642180    0.021115   -1.020834
H       2.089137   -1.046431    0.275853
H       3.133753   -1.856165   -2.415108
H       2.902762   -2.841262   -0.982654
H       0.973697   -2.343524   -3.262847
H       1.047050   -3.750241   -2.208939
H      -0.989702   -2.016642   -1.864353
H      -0.347819   -3.574640   -0.233066
