20

C      -0.407698    1.452415    0.022861
C       0.123332    0.037303   -0.133558
C       1.550485   -0.190328   -0.723808
C       1.794943   -1.309692    0.330979
C       0.598204   -0.740521    1.103559
C       0.614276   -0.282443    2.531783
N      -0.231606   -1.377551    2.098577
C      -0.119490   -2.675527    2.561962
O       0.109692   -2.987519    3.705149
H       0.310353    2.088354    0.551956
H      -0.600487    1.907762   -0.954158
H      -1.348175    1.463057    0.584585
H      -0.602639   -0.579073   -0.677362
H       1.613751   -0.476561   -1.774862
H       2.196660    0.675399   -0.553694
H       1.590751   -2.304491   -0.075562
H       2.759181   -1.329784    0.843661
H       1.474147   -0.540601    3.145765
H       0.096692    0.629159    2.818146
H      -0.335589   -3.413429    1.765155
