18

C      -0.576603    1.672969   -0.049176
C      -0.019804    0.259396    0.024033
C       1.244176   -0.074194   -0.849595
C       1.862701   -0.821221    0.359110
O       3.235052   -0.703219    0.624563
C       0.835228   -0.124293    1.286525
C      -1.095376   -0.776530   -0.206222
O      -2.255172   -0.533255   -0.422494
H       0.216123    2.408497    0.118485
H      -1.027349    1.866181   -1.026992
H      -1.356015    1.826225    0.702952
H       1.099816   -0.629841   -1.779893
H       1.794337    0.845393   -1.075355
H       1.674100   -1.896925    0.297773
H       3.449509    0.233697    0.689178
H       1.255135    0.779437    1.740687
H       0.362437   -0.720082    2.071728
H      -0.737369   -1.832812   -0.162766
