25

C      -0.023260    1.582270    0.091055
C      -0.083639    0.056266   -0.023023
C       0.663045   -0.547656   -1.237607
C       0.571916   -2.082507   -1.172632
C       0.074952   -0.015591   -2.558651
C       0.701748   -0.591278   -3.832665
O       0.183984    0.027677   -5.003478
O       2.030180   -0.099394   -1.270244
C       2.898706   -0.548637   -0.254699
H       1.010078    1.936189    0.038472
H      -0.585229    2.075653   -0.707245
H      -0.450142    1.913105    1.042738
H       0.325576   -0.390404    0.891245
H      -1.127582   -0.276929   -0.069311
H      -0.456074   -2.405214   -1.363875
H       1.220579   -2.551750   -1.917139
H       0.855621   -2.462538   -0.186865
H      -1.005711   -0.196270   -2.576191
H       0.219883    1.070962   -2.577020
H       1.794749   -0.502347   -3.776181
H       0.461495   -1.653096   -3.942517
H       0.442220    0.954607   -4.979248
H       2.564180   -0.262228    0.752410
H       3.045401   -1.637226   -0.273453
H       3.863917   -0.070200   -0.441685
