20

N      -0.034851    1.316017    0.228684
C       0.012188    0.072628   -0.016207
C      -1.280665   -0.720236   -0.081427
C      -1.446958   -1.723689   -1.240480
C      -0.642396   -2.988716   -1.008951
C       0.223679   -3.604896   -2.074174
C       0.859029   -2.873061   -0.911246
C       1.476368   -1.517866   -1.139839
O       1.222854   -0.572897   -0.085221
H       0.917679    1.684982    0.285425
H      -1.373882   -1.269465    0.865535
H      -2.078408    0.024567   -0.096908
H      -2.509043   -1.977340   -1.328991
H      -1.175225   -1.251450   -2.190945
H      -1.100133   -3.680339   -0.306544
H       0.316233   -4.684464   -2.110578
H       0.251464   -3.126129   -3.048579
H       1.353273   -3.476214   -0.155954
H       2.566741   -1.591963   -1.175567
H       1.148639   -1.091771   -2.095420
