17

C       0.115215    1.584383   -0.027370
C       0.043777    0.066895    0.036419
C       0.918279   -0.763306   -0.961854
C       1.417576   -1.640869    0.209467
O       2.832408   -1.525772    0.483891
C       2.922106   -0.509434    1.380131
N       1.873167    0.036152    1.841173
C       0.740956   -0.671991    1.223506
H       1.145233    1.933928    0.086405
H      -0.269562    1.948380   -0.986380
H      -0.477979    2.043237    0.770229
H      -1.000764   -0.257616   -0.020897
H       0.381546   -1.284973   -1.757455
H       1.734023   -0.189813   -1.410377
H       1.158146   -2.699107    0.192518
H       3.938147   -0.241377    1.649178
H       0.080302   -1.063520    2.001664
