24

C       0.252890    2.120236   -0.519238
C      -0.011247    0.621279   -0.345698
C       0.713696   -0.275325   -1.372871
C       2.227962   -0.363875   -1.079641
C       3.108627   -0.736458   -2.277925
C       0.035075   -1.647307   -1.390599
O       0.571016   -2.462704   -2.412048
C      -0.025319   -3.735190   -2.462021
H       1.314753    2.366858   -0.421555
H      -0.076552    2.464350   -1.505867
H      -0.288108    2.702069    0.233670
H       0.276452    0.310596    0.668053
H      -1.092989    0.449500   -0.418020
H       0.574589    0.166909   -2.369984
H       2.568251    0.601339   -0.686585
H       2.383334   -1.086512   -0.266284
H       4.165379   -0.756941   -1.990863
H       2.836203   -1.713352   -2.679047
H       2.999986   -0.001691   -3.083990
H       0.161313   -2.138483   -0.408038
H      -1.050736   -1.523323   -1.547907
H       0.124455   -4.295708   -1.525160
H      -1.109340   -3.670624   -2.649666
H       0.442008   -4.286537   -3.281685
