13

N       0.020613    1.099403   -0.533815
C      -0.031372   -0.060561   -0.082088
O       0.978648   -0.904081    0.398965
C       0.040048   -1.987237    0.633441
C      -0.629620   -1.905651    2.019057
O      -1.644317   -1.005172    1.514293
C      -1.134775   -1.073761    0.173975
C       0.457613   -3.249874    0.074649
N       0.766170   -4.276611   -0.356222
H       0.967070    1.482915   -0.526378
H      -1.069174   -2.848128    2.360387
H      -0.004731   -1.461328    2.798758
H      -1.888192   -1.276343   -0.585477
