14

N       0.017642    0.956082   -1.136323
C       0.075487    0.122326   -0.164112
N       1.254438   -0.465121    0.274749
N       1.552417   -1.346752    1.251639
C       0.702578   -1.869266    2.053223
C      -0.761469   -1.734618    2.211691
N      -1.274284   -2.435423    3.151975
N      -1.604807   -0.918808    1.429454
C      -1.240894   -0.171680    0.467651
H       0.936170    1.137062   -1.548508
H       2.083776   -0.189552   -0.230501
H       1.132713   -2.558390    2.774245
H      -2.283291   -2.264304    3.168432
H      -2.018135    0.399923   -0.040104
