20

C       0.209929    1.466402   -0.030176
C       0.385021   -0.041191    0.007020
O       0.361055   -0.529937   -1.333709
C       0.527278   -1.918502   -1.408330
C       0.841320   -2.490198   -2.771731
C       0.854696   -1.630725   -4.015910
C       1.933442   -2.382030   -1.718112
O       2.919348   -1.400393   -1.831655
H       1.027444    1.940673   -0.581370
H      -0.731307    1.731126   -0.519871
H       0.200104    1.871391    0.985990
H       1.331649   -0.319108    0.493280
H      -0.428373   -0.512449    0.580392
H      -0.110433   -2.480874   -0.726414
H       0.453110   -3.494983   -2.921806
H       1.318910   -0.660767   -3.831516
H       1.420030   -2.123576   -4.813308
H      -0.161242   -1.449873   -4.381378
H       2.324529   -3.288714   -1.267067
H       2.460513   -0.551816   -1.770906
