22

C      -0.223459    1.630859    0.013336
C      -0.027945    0.118152    0.027249
C       0.932619   -0.570751   -1.083099
C       1.446658    0.241095   -2.261736
C       1.879810   -0.880830    0.107203
C       2.587735   -1.768924    1.186377
N       2.092381   -0.541144    2.019459
C       2.610822    0.277649    0.836180
C       0.790628   -0.706889    1.119318
H       0.702131    2.200148   -0.088021
H      -0.869200    1.916410   -0.825010
H      -0.716687    1.957666    0.934572
H      -1.025642   -0.330929   -0.008639
H       0.437836   -1.479843   -1.441043
H       1.988403    1.133654   -1.933029
H       2.132268   -0.356170   -2.872545
H       0.625749    0.568397   -2.909360
H       2.103309   -2.710229    1.457895
H       3.679124   -1.855872    1.193868
H       3.702892    0.302939    0.767026
H       2.204710    1.286531    0.805259
H       0.221378   -1.576076    1.458237
