21

C       0.029686    1.539373   -0.032461
C      -0.007720    0.020652   -0.060318
C       0.589731   -0.620385   -1.284951
C       0.093412   -1.855262   -1.406792
C      -0.740427   -2.135584   -0.173979
C       0.312968   -2.194435    1.006961
C       0.291806   -0.702813    1.361049
C      -1.219865   -0.526371    1.671592
C      -1.362830   -0.736475    0.151009
H       1.066243    1.896214   -0.044804
H      -0.470727    1.957858   -0.912969
H      -0.447660    1.961687    0.855638
H       1.318288   -0.140391   -1.928315
H       0.357120   -2.597325   -2.151000
H      -1.424349   -2.982901   -0.225766
H      -0.028270   -2.804122    1.849347
H       1.279215   -2.574833    0.669542
H       1.069957   -0.318977    2.021492
H      -1.680906   -1.254224    2.345516
H      -1.495505    0.481560    1.984356
H      -2.255045   -0.457424   -0.414114
