18

N      -0.088984    1.478169   -0.038711
C       0.015147    0.080025    0.008508
C      -0.957596   -0.838521    0.267576
O      -0.418802   -2.100162    0.307893
C       0.912007   -1.980376    0.061661
C       1.713495   -3.234506    0.060334
C       1.783489   -3.900993    1.437410
O       2.558841   -5.080871    1.296665
C       1.233922   -0.670520   -0.124086
H       0.513917    1.887439   -0.740989
H      -1.037120    1.796576   -0.191954
H      -2.017115   -0.769363    0.446425
H       1.293414   -3.959299   -0.647656
H       2.729209   -3.006629   -0.275922
H       2.235414   -3.202571    2.158913
H       0.764503   -4.124300    1.785891
H       2.590932   -5.522718    2.149953
H       2.218225   -0.276433   -0.327163
