22

C      -0.045234    1.518645    0.423921
C       0.067150    0.157339   -0.274963
C      -1.273850   -0.582984   -0.276219
C      -1.907980   -1.477128   -1.325150
C      -0.980075   -2.575129   -1.905899
N       0.389681   -2.410570   -1.354168
C      -0.673944   -3.074016   -0.554059
C      -1.618638   -2.008028    0.087219
C      -2.575436   -2.400547    1.176403
H       0.916126    2.042434    0.426273
H      -0.774974    2.166373   -0.075991
H      -0.364581    1.406529    1.466647
H       0.416216    0.296236   -1.301863
H       0.831143   -0.449256    0.214664
H      -2.066527    0.056089    0.119971
H      -2.871942   -1.248245   -1.764957
H      -1.151626   -3.114428   -2.828319
H       0.958715   -3.157248   -1.754794
H      -0.553574   -4.086166   -0.188298
H      -2.059617   -2.529865    2.136694
H      -3.346997   -1.636494    1.315487
H      -3.081209   -3.346397    0.945434
