18

C      -0.049081    1.525164    0.033742
C      -0.005967    0.018883    0.016287
C       0.079717   -0.654008   -1.212509
N       0.174575    0.034258   -2.427007
C       0.128738   -2.058742   -1.218051
O       0.206038   -2.649269   -2.456732
C       0.095672   -2.780674   -0.033423
C       0.008259   -2.110117    1.185589
C      -0.042157   -0.721882    1.200795
H       0.805602    1.956928   -0.501135
H      -0.956206    1.917297   -0.448138
H      -0.037104    1.906580    1.057445
H      -0.339579    0.902731   -2.458535
H      -0.029026   -0.549467   -3.226048
H       0.205182   -3.604900   -2.347980
H       0.134293   -3.866669   -0.067731
H      -0.017062   -2.672282    2.112183
H      -0.107892   -0.192746    2.146349
