19

C      -0.273573    1.303710    0.052366
O       0.184445   -0.036563    0.128417
C       0.733685   -0.490810   -1.046571
C      -0.087199   -0.943711   -2.230736
C       0.845739   -1.914899   -1.519707
N       2.254208   -1.728617   -1.866485
C       2.689498   -2.059497   -3.210140
C       2.197205   -0.290213   -1.468832
H       0.549134    2.003839   -0.151187
H      -1.035492    1.422347   -0.730331
H      -0.711668    1.546179    1.022917
H      -1.137337   -1.100715   -2.003480
H       0.116243   -0.591187   -3.238607
H       0.494882   -2.839378   -1.074163
H       2.119030   -1.557189   -4.012039
H       3.744470   -1.790897   -3.327232
H       2.601036   -3.140412   -3.361842
H       2.372745    0.427255   -2.281596
H       2.872758   -0.071452   -0.635207
