23

C       0.035817    1.335222    0.466782
C      -0.102605   -0.070456   -0.123293
C      -1.475758   -0.672622    0.135319
O      -1.528952   -1.962362   -0.471480
C      -2.757203   -2.605619   -0.275277
C      -2.802616   -4.085313   -0.580278
C      -1.622639   -4.814320   -1.182851
C      -2.787175   -3.602229    0.862193
O      -1.628959   -3.731309    1.630738
H       1.030394    1.745617    0.271194
H      -0.698344    2.023780    0.034247
H      -0.113797    1.330007    1.551977
H       0.069260   -0.049300   -1.205390
H       0.660222   -0.734665    0.300305
H      -1.673348   -0.752538    1.215230
H      -2.263311   -0.032631   -0.294293
H      -3.625365   -1.986092   -0.499895
H      -3.772510   -4.427074   -0.934325
H      -0.678402   -4.482105   -0.748881
H      -1.709245   -5.891229   -1.006415
H      -1.568107   -4.650360   -2.263848
H      -3.680906   -3.717122    1.467588
H      -0.958550   -3.184457    1.199820
