20

C      -0.102565    1.532532    0.020345
C       0.064693    0.014337    0.032297
C       1.007040   -0.566777   -1.082320
C       1.986480   -1.365208   -0.202328
C       1.032617   -2.045053    0.821375
C       0.781887   -0.577075    1.268093
C       2.294014   -0.316099    0.924945
C       3.239431   -0.752068    1.937636
N       4.001598   -1.083531    2.742265
H       0.856622    2.055571    0.098840
H      -0.577482    1.862834   -0.909402
H      -0.731973    1.866366    0.852112
H      -0.929113   -0.441077   -0.041415
H       0.478805   -1.209684   -1.791398
H       1.507792    0.221739   -1.653099
H       2.794895   -1.905658   -0.693034
H       0.180714   -2.605800    0.427494
H       1.562964   -2.635330    1.570072
H       0.384741   -0.328039    2.251897
H       2.566193    0.690504    0.596386
