14

O       0.017904   -0.015555   -0.064430
C      -0.024179    1.185301   -0.011786
C      -1.222700    2.061210    0.086395
C      -0.869568    3.352048    0.032332
C       0.611481    3.538345   -0.036332
C       1.362398    3.035035    1.169269
C       1.186150    2.132411   -0.057480
C       2.337308    1.770180   -0.824939
N       3.268547    1.483222   -1.447669
H      -2.219328    1.656247    0.196665
H      -1.547179    4.196201    0.085471
H       1.043108    4.328726   -0.637572
H       2.368034    3.403689    1.338301
H       0.797041    2.785243    2.060007
