15

O      -0.021438    1.378057    0.078999
C       0.004173   -0.007130   -0.007739
C      -0.424119   -0.747925   -1.234058
C      -1.281565   -0.800558    0.037825
C      -1.106960   -1.909057    1.044519
O      -1.982988   -2.587803    1.517897
C       0.342274   -1.904962    1.519052
O       1.306744   -2.065462    0.456298
C       0.999123   -0.745160    0.895753
H       0.633114    1.732787   -0.533144
H      -0.861368   -0.150026   -2.026682
H       0.126636   -1.624641   -1.546943
H      -2.253235   -0.324999   -0.004074
H       0.599772   -2.352418    2.473933
H       1.801040   -0.183447    1.366980
