16

O      -0.174782    1.402694   -0.465875
C      -0.049601    0.070488   -0.113162
C      -1.310283   -0.664357    0.264405
O      -2.455380    0.145925    0.252427
C      -3.394532   -0.177137   -0.732999
O      -3.118855    0.429207   -1.981612
C      -2.045469   -0.020308   -2.699001
N      -1.018397   -0.664315   -2.358245
C      -0.609199   -1.009052   -1.048494
H      -1.086852    1.660383   -0.270136
H       0.875869   -0.147950    0.411008
H      -1.311113   -1.399872    1.065294
H      -3.464119   -1.264756   -0.859911
H      -4.350334    0.242957   -0.416066
H      -2.172756    0.276713   -3.738247
H      -0.058007   -1.945265   -1.021913
