18

C       0.005473    1.518864   -0.206392
C       1.366910    2.127664    0.224457
C       2.358757    0.968707    0.383948
O       2.300952    0.159318   -0.809389
C       1.249040   -0.749952   -0.522703
C       1.491685   -1.260365    0.911646
C       1.898445    0.024447    1.502733
N       0.443779   -0.337388    1.476052
C       0.023851    0.019655    0.068704
H      -0.826929    1.985769    0.328791
H      -0.168767    1.679630   -1.275242
H       1.735535    2.840852   -0.517449
H       1.280164    2.660365    1.177799
H       3.388571    1.306971    0.522283
H       1.112486   -1.431679   -1.360539
H       1.689986   -2.254408    1.291733
H       2.319223    0.099365    2.498021
H      -0.930860   -0.465835   -0.144413
