20

C       0.036902    1.562818    0.078662
C      -0.040551    0.055094    0.015177
C       0.343045   -0.672897   -1.291351
N      -0.780159   -1.661653   -1.156443
C      -0.399975   -2.729854   -0.168779
C      -0.698637   -1.814211    1.029322
C       0.422171   -0.757697    1.251044
O       1.775172   -1.149928    1.219068
C      -1.336102   -0.831147   -0.003464
H       1.081951    1.895289    0.083928
H      -0.454429    2.023530   -0.785363
H      -0.439996    1.954256    0.984390
H       0.174980   -0.045317   -2.173685
H       1.343663   -1.110831   -1.350443
H      -1.099738   -3.568199   -0.246070
H       0.623261   -3.106522   -0.268853
H      -1.191694   -2.225063    1.912087
H       0.196877   -0.179026    2.160085
H       1.977254   -1.629992    2.028562
H      -2.368040   -0.482655   -0.032977
