23

C      -0.074680    1.531822    0.031710
C       0.021275    0.017110   -0.031726
C       1.173382   -0.633972   -0.866675
C       1.148656   -1.790759    0.177250
C       0.617163   -0.743623    1.190824
C       0.031756   -2.798555   -0.138872
C      -1.154891   -2.102816   -0.844670
O      -2.393986   -2.766960   -0.619606
C      -1.325802   -0.641222   -0.393492
H       0.880127    1.977150    0.331580
H      -0.351593    1.953745   -0.941720
H      -0.834526    1.849771    0.755780
H       1.001389   -0.862854   -1.922495
H       2.092086   -0.046295   -0.779476
H       2.092243   -2.290460    0.408751
H       1.431534   -0.177159    1.653343
H      -0.073304   -1.086149    1.968626
H       0.405654   -3.613937   -0.771363
H      -0.329408   -3.253073    0.791790
H      -0.941947   -2.094567   -1.924189
H      -2.320195   -3.659174   -0.973467
H      -1.990737   -0.619869    0.478382
H      -1.830856   -0.079308   -1.187723
