19

O      -0.036054    1.485275    0.077126
C       0.034703    0.074558    0.011655
C       0.828876   -0.547507    1.188757
C       0.357304   -1.983369    1.422211
C      -0.058997   -2.688760    0.110760
C      -1.387232   -1.959210    0.390024
O      -1.050638   -1.925237    1.813320
C      -1.414466   -0.486421   -0.055234
O      -2.326383    0.211533    0.761560
H       0.861369    1.827502    0.012758
H       0.526697   -0.229313   -0.925675
H       1.906852   -0.512962    0.986212
H       0.643722    0.032042    2.099574
H       0.959135   -2.529265    2.152784
H       0.488294   -2.479266   -0.809589
H      -0.161357   -3.765836    0.250277
H      -2.338364   -2.463839    0.206850
H      -1.784732   -0.387254   -1.081339
H      -2.129425   -0.067408    1.666524
