19

N      -0.081781    1.435751    0.001896
C       1.253045    0.799745    0.016984
C       0.023752   -0.018072    0.005056
C      -0.433449   -0.984650    1.079745
C      -1.910900   -1.246928    0.940246
C      -0.963315   -1.935870   -0.007620
C      -0.503453   -0.963671   -1.076036
N      -1.201806   -0.572884   -2.294398
C       0.079708   -1.304516   -2.388981
H      -0.324813    1.769257    0.932383
H       1.831671    0.936021   -0.892973
H       1.839909    0.823455    0.932802
H       0.120619   -1.239799    1.974675
H      -2.342040   -1.883181    1.706777
H      -2.573176   -0.464996    0.578927
H      -0.867468   -3.013707   -0.053169
H      -1.982174   -1.203508   -2.465963
H       0.905904   -0.723890   -2.791064
H       0.071326   -2.348781   -2.694158
