21

C      -0.276339    1.449096   -0.046796
C       0.060801   -0.034266   -0.009535
O       0.865020   -0.425209   -1.120960
C       2.203780   -0.382795   -0.687259
C       2.158232   -0.355530    0.809422
O       0.795534   -0.383676    1.162180
C       2.724195   -1.578850    0.099637
C       1.964343   -2.885439    0.100277
C       4.235565   -1.704288    0.147798
H       0.639246    2.047622   -0.029791
H      -0.833130    1.683671   -0.958372
H      -0.887321    1.716045    0.820068
H      -0.845626   -0.649577   -0.025931
H       2.863416    0.223986   -1.300049
H       2.780018    0.273884    1.438734
H       0.886304   -2.728470    0.064796
H       2.247068   -3.493787   -0.766079
H       2.193506   -3.461703    1.003597
H       4.554852   -2.232886    1.053128
H       4.608834   -2.262665   -0.718157
H       4.725219   -0.724459    0.146250
