20

C      -0.235255    1.874791   -0.180400
C      -0.155263    0.357062   -0.183737
C      -1.519938   -0.311526    0.036781
C      -2.211356    0.049824    1.357017
N      -1.458937   -0.204280    2.466159
O      -3.346178    0.484758    1.401286
C       0.681350   -0.286436   -1.322176
C       1.561940   -0.847034   -0.192117
O       0.821629   -0.114862    0.808988
H       0.758799    2.310249   -0.312554
H      -0.881966    2.223158   -0.992400
H      -0.649185    2.241806    0.763438
H      -2.203684   -0.026768   -0.766649
H      -1.390696   -1.399700   -0.001399
H      -0.468425   -0.377408    2.362510
H      -1.822988    0.105373    3.352963
H       0.158765   -1.019337   -1.938702
H       1.179923    0.438436   -1.967917
H       1.493669   -1.930961   -0.039378
H       2.617933   -0.557281   -0.203208
