17

C       0.076386   -1.100770    0.014841
C       0.276426    0.065726   -0.187868
C       0.500777    1.476679   -0.467802
O       1.215752    2.071132    0.613465
C       1.415140    3.434795    0.440395
C       2.744860    4.033710    0.798800
C       3.845400    3.093275    0.311897
O       3.289592    3.060104   -1.033412
C       2.280515    3.990495   -0.655351
H      -0.096102   -2.132282    0.199130
H       1.075557    1.592158   -1.397171
H      -0.467385    1.983017   -0.610368
H       0.557813    4.064166    0.690725
H       2.867045    4.850576    1.496900
H       4.837436    3.555448    0.297608
H       3.887133    2.099882    0.766943
H       1.994806    4.753143   -1.371935
