17

N      -0.209663    1.532027   -0.081142
C      -0.045588    0.080556   -0.112905
C      -1.440065   -0.639772   -0.117638
O      -2.435641    0.211751   -0.642752
C      -1.288688   -1.841683   -1.073136
C      -0.048740   -1.534139   -1.864914
C       0.635668   -0.505405   -1.349805
C       1.857712    0.026500   -1.840925
N       2.851464    0.505432   -2.196506
H       0.623656    1.985495    0.275573
H      -0.365575    1.890330   -1.018285
H       0.515091   -0.203672    0.785127
H      -1.704030   -0.960724    0.899591
H      -2.310193    1.061785   -0.196847
H      -1.170172   -2.784880   -0.523932
H      -2.179494   -1.947678   -1.700276
H       0.257272   -2.102855   -2.735311
