21

C      -0.964320    1.056028    0.634699
C      -0.373018   -0.331935    0.780763
O       0.300508   -0.777672   -0.423154
C       1.447686   -1.220252    0.319816
C       2.576357   -0.207529    0.372944
C       3.306453   -0.418156    1.669721
C       2.016116    0.367178    1.691290
C       1.983517    1.770287    2.235723
C       0.867437   -0.645838    1.659933
H      -0.215436    1.771693    0.289661
H      -1.771993    1.034297   -0.104298
H      -1.384278    1.403954    1.584680
H      -1.177969   -1.040985    1.028573
H       1.686659   -2.271444    0.130077
H       3.009252    0.302501   -0.479541
H       3.367426   -1.410971    2.111991
H       4.204363    0.177374    1.801250
H       2.915042    2.296929    2.003106
H       1.157947    2.363094    1.835073
H       1.881220    1.758008    3.328100
H       0.678377   -1.228473    2.564472
