20

C       0.088259    1.560896   -0.045520
C      -0.005976    0.034150    0.020423
C       0.763366   -0.670715   -1.076548
C       1.207235   -2.019911   -0.652820
C       1.165902   -2.002649    0.881560
C       2.140047   -0.855673    0.817724
N       2.198511   -0.894323   -0.695320
C       0.708845   -0.585350    1.216805
C       0.360452   -0.227442    2.638231
H       1.133402    1.886339   -0.029834
H      -0.369661    1.942954   -0.963478
H      -0.427322    2.028923    0.799078
H      -1.059719   -0.275094   -0.002884
H       0.609173   -0.431373   -2.123363
H       1.303299   -2.888930   -1.293417
H       1.102650   -2.843979    1.557478
H       3.025056   -0.611358    1.390695
H       0.482704    0.845387    2.823210
H      -0.677254   -0.491448    2.872217
H       1.002955   -0.758815    3.347712
