19

C      -0.635571    1.558815   -0.096313
C       0.085146    0.213707    0.023583
C       1.377158    0.019302   -0.857016
C       2.093133   -0.512730    0.387458
C       2.853650   -1.775788    0.490712
N       3.510766   -0.466908    0.704633
C       0.978601   -0.003905    1.302521
C      -0.853351   -0.889779   -0.165915
N      -1.599981   -1.759923   -0.317765
H       0.078009    2.375180    0.048401
H      -1.095999    1.672147   -1.082269
H      -1.421883    1.650738    0.658618
H       1.289785   -0.641700   -1.721462
H       1.762338    0.991280   -1.182486
H       2.767700   -2.392701    1.381068
H       3.060474   -2.324323   -0.424901
H       4.051081   -0.206350   -0.117461
H       1.229051    0.952816    1.769518
H       0.591407   -0.686821    2.060229
