20

C       0.072053    1.442330   -0.240029
C       0.011569   -0.042412    0.120821
O       0.724259   -0.322881    1.324540
C      -1.408284   -0.544221    0.203000
C      -2.402053   -0.294814    1.350953
C      -2.975956   -1.735720    1.094190
O      -4.312383   -1.846551    0.651334
C      -1.968035   -1.919384   -0.038745
N      -2.113092   -0.859085   -1.032087
H       1.111362    1.776869   -0.299816
H      -0.414341    1.623639   -1.202643
H      -0.441896    2.049693    0.516532
H       0.518337   -0.621492   -0.658861
H       0.473843    0.342469    1.974033
H      -1.931297   -0.212023    2.334031
H      -3.102250    0.535219    1.208224
H      -2.774215   -2.404266    1.940887
H      -4.894329   -1.618241    1.383288
H      -1.481234   -2.842725   -0.330427
H      -3.065802   -0.499657   -1.059100
