14

O      -0.175021    1.421235   -0.026232
C      -0.050825    0.056564   -0.016113
C      -0.204873   -0.857265   -1.195854
C      -1.165810   -0.962701   -0.021230
C      -0.497975   -1.677078    1.188623
O       0.835733   -2.074855    0.855108
C       0.603525   -0.704630    1.210582
C       1.337575   -0.104003    2.274375
N       1.928935    0.429991    3.112856
H       0.618385    1.803797   -0.420443
H      -0.642707   -0.363914   -2.057873
H       0.503546   -1.647001   -1.411577
H      -2.230690   -0.802509   -0.110468
H      -0.986402   -2.192481    2.005910
