17

C      -0.010410    1.561563   -0.009959
C       0.033631    0.034095    0.043668
C       0.797839   -0.595682   -1.147891
O       1.352136   -1.828223   -0.694609
C       1.531937   -1.732421    0.695726
C       2.270682   -0.540810    1.249463
C       0.748487   -0.577334    1.243375
H       0.998827    1.985031    0.030945
H      -0.485345    1.912738   -0.932801
H      -0.578613    1.971046    0.831012
H      -0.993972   -0.351494    0.047301
H       0.158482   -0.810529   -2.008883
H       1.596271    0.082785   -1.485557
H       1.603061   -2.706983    1.163684
H       2.761783   -0.662529    2.208954
H       2.793651    0.118896    0.565130
H       0.220505   -0.637051    2.188156
