19

C       0.149150    1.351688    0.006616
O      -0.011815   -0.072312    0.000173
C      -1.288459   -0.508524    0.011993
O      -2.244213    0.225380    0.026839
C      -1.335726   -2.023257    0.004121
C      -2.762020   -2.570961    0.014562
C      -2.784492   -4.112053    0.006859
C      -4.135661   -4.659192    0.016473
C      -5.258706   -5.087176    0.024537
H       1.224626    1.529102   -0.003406
H      -0.320362    1.797573   -0.873947
H      -0.302223    1.787516    0.901569
H      -0.780099   -2.371958   -0.875494
H      -0.763879   -2.381353    0.869482
H      -3.294517   -2.200550    0.895222
H      -3.310770   -2.191640   -0.852234
H      -2.247545   -4.483495   -0.876452
H      -2.231424   -4.492480    0.876292
H      -6.247649   -5.473181    0.031563
