21

C      -0.154911    1.566234    0.011453
C       0.032266    0.050648    0.015800
C       0.964750   -0.526368   -1.047315
C       2.456879   -0.285084   -0.568890
C       2.723004   -1.795789   -0.793665
C       1.207030   -2.000120   -0.586840
O       0.868829   -1.967917    0.810702
C       0.850649   -0.575081    1.167906
C       2.269081   -0.016447    0.948455
H       0.794944    2.104255   -0.056367
H      -0.763738    1.873274   -0.845252
H      -0.669036    1.905191    0.917667
H      -0.946856   -0.440778   -0.019912
H       0.743449   -0.361949   -2.100632
H       3.085223    0.442219   -1.084038
H       3.014644   -2.013531   -1.826125
H       3.395471   -2.311716   -0.102535
H       0.696917   -2.847938   -1.048562
H       0.445812   -0.487102    2.177255
H       3.010703   -0.538228    1.559383
H       2.319788    1.048392    1.193727
