18

C      -0.172746    1.143519    0.117497
N      -0.267455   -0.277079   -0.187755
C       0.563482   -0.758333   -1.005855
N       1.640878   -0.289904   -1.749757
C       1.903362   -1.578143   -2.411093
C       0.759688   -2.179893   -1.550467
O       1.220027   -3.169403   -0.653084
C       0.372118   -3.501684    0.353420
N       0.688737   -4.441041    1.133575
H       0.859631    1.524823    0.101394
H      -0.762993    1.737078   -0.594249
H      -0.586571    1.328527    1.112577
H       1.797677    0.635364   -2.116658
H       1.715837   -1.591085   -3.489354
H       2.887775   -1.999582   -2.193215
H      -0.095623   -2.545191   -2.129128
H      -0.526750   -2.877942    0.393721
H      -0.038217   -4.560275    1.836481
