18

O       0.048031    1.400102    0.123695
C       0.006912    0.005797    0.012307
C      -1.440057   -0.527800    0.008494
C      -1.475092   -2.048733   -0.186355
C      -0.779359   -2.459631   -1.491792
C       0.674766   -1.939299   -1.546336
C       0.721186   -0.454805   -1.256599
O       1.254895    0.362656   -1.977230
H       0.571192    1.697812   -0.638655
H       0.538671   -0.460879    0.862220
H      -1.923843   -0.232780    0.944574
H      -1.984270   -0.027246   -0.802329
H      -0.981550   -2.541585    0.662522
H      -2.511804   -2.401255   -0.188460
H      -0.780764   -3.548054   -1.608841
H      -1.335955   -2.051294   -2.344835
H       1.266959   -2.452293   -0.776045
H       1.147091   -2.127205   -2.513479
