19

C      -0.087818    1.544938    0.119454
C       0.063546    0.034525    0.022626
O      -1.177252   -0.608234    0.245801
C       0.670252   -0.578550   -1.246252
C       2.108522   -0.190722   -1.419557
C       1.762561   -1.281278   -0.442320
C       1.229906   -0.676982    0.858858
C       2.150266    0.160634    1.708787
O       1.771707    0.837125    2.634975
H       0.828346    2.071459   -0.160175
H      -0.893883    1.872919   -0.543881
H      -0.327015    1.841476    1.146523
H      -1.554946   -0.247323    1.055813
H       0.063609   -0.965293   -2.055063
H       2.564691   -0.525948   -2.345113
H       2.478196    0.773255   -1.078485
H       2.137234   -2.290736   -0.554883
H       0.741549   -1.414770    1.500625
H       3.228143    0.131335    1.424944
