16

C       0.065393   -1.123660   -0.021863
C       0.023322    0.077890   -0.011688
C      -0.067790    1.505041    0.000674
C      -1.116227    2.237591   -0.819313
C      -0.687772    3.654324   -0.514965
C      -0.110909    3.758545    0.891976
C       0.801725    3.685595   -0.304850
N       1.240902    2.275762    0.028267
C       0.319788    2.319419    1.199064
H       0.115288   -2.184090   -0.031525
H      -1.041971    1.991191   -1.882934
H      -2.127425    2.004319   -0.471915
H      -1.182129    4.516795   -0.943726
H      -0.311571    4.556038    1.592423
H       1.504288    4.381238   -0.742610
H       0.593297    1.898226    2.158982
