16

C       0.115429    1.406066    0.092639
N       0.201799   -0.045496    0.077561
C       0.521368   -0.630470   -0.990189
O       0.832164   -0.013231   -2.179710
C       0.846496   -0.953747   -3.267890
C       0.800249   -2.328168   -2.631924
N       1.924249   -2.527165   -1.706621
C       0.595683   -2.103850   -1.181543
H       1.032286    1.824836    0.525934
H      -0.023971    1.852501   -0.899015
H      -0.712183    1.705639    0.743161
H      -0.029702   -0.779336   -3.903939
H       1.757492   -0.783097   -3.848613
H       0.364721   -3.163546   -3.167844
H       2.032339   -3.522424   -1.521379
H       0.031096   -2.754710   -0.527879
