25

C      -0.072337    1.568441    0.483584
C      -0.099026    0.294045   -0.379250
C      -1.383527   -0.475852   -0.276148
C      -2.275252   -0.682588   -1.248615
C      -3.423591   -1.572134   -0.825754
C      -3.304536   -2.972695   -1.455204
C      -3.302868   -1.523943    0.732105
C      -3.823286   -2.737764    1.500280
C      -1.815884   -1.180986    0.995967
H       0.880886    2.094302    0.370891
H      -0.874917    2.252930    0.191435
H      -0.200457    1.337877    1.545760
H       0.079202    0.562302   -1.426871
H       0.737649   -0.352087   -0.076819
H      -2.168950   -0.319698   -2.267174
H      -4.390872   -1.154682   -1.135928
H      -2.369636   -3.463561   -1.164576
H      -4.136374   -3.620744   -1.160747
H      -3.310311   -2.901234   -2.548055
H      -3.883972   -0.649290    1.050614
H      -3.267311   -3.647209    1.249633
H      -3.726555   -2.581639    2.580270
H      -4.881982   -2.924752    1.289176
H      -1.209204   -2.086277    1.154776
H      -1.689616   -0.571808    1.898640
