15

C      -0.406015    1.398458   -0.184785
O      -0.343277   -0.030230   -0.319617
C       0.656580   -0.492317   -1.086619
O       1.452306    0.184905   -1.679024
C       0.668535   -2.013398   -1.045127
O       1.440391   -2.602222   -2.094441
C       2.466858   -3.110955   -1.216430
C       1.674648   -2.596726   -0.011637
O       1.764433   -2.632187    1.172280
H       0.519009    1.781974    0.252287
H      -0.558710    1.866807   -1.159953
H      -1.251724    1.595925    0.472989
H      -0.350733   -2.407762   -0.972896
H       2.587961   -4.198801   -1.279103
H       3.435413   -2.618180   -1.367342
