23

C       0.138986    1.127818    0.540890
C      -0.206286   -0.218840   -0.089308
O       0.512378   -1.285105    0.543711
C      -1.711795   -0.490371   -0.087494
O      -1.992870   -1.595844   -0.918790
C      -2.900940   -2.574157   -0.429413
C      -2.144596   -3.847524   -0.027531
C      -1.480667   -4.527051   -1.227927
O      -1.207035   -3.558461    0.995086
H       1.222415    1.270542    0.556108
H      -0.311832    1.952973   -0.018482
H      -0.229074    1.185600    1.573487
H       0.133977   -0.241607   -1.130254
H       0.404203   -1.186406    1.497492
H      -2.043440   -0.673038    0.944927
H      -2.243064    0.401985   -0.456191
H      -3.454093   -2.188275    0.436351
H      -3.625312   -2.792423   -1.225490
H      -2.874091   -4.535951    0.420012
H      -0.902280   -5.392159   -0.893661
H      -2.225593   -4.865122   -1.956637
H      -0.805553   -3.828105   -1.731553
H      -0.548828   -2.951051    0.618879
