19

C      -0.061548    1.359246    0.004259
O      -0.000995   -0.054337   -0.089078
C       0.607574   -0.518625   -1.222257
C       0.184146   -0.375588   -2.707018
C       1.427839   -1.287334   -2.761921
C       2.141197   -0.559241   -1.587173
O       2.403899   -1.772075   -0.829947
C       1.077142   -1.998709   -1.408407
C       0.363526   -3.279236   -1.123221
H       0.943032    1.804021    0.009789
H      -0.636055    1.795092   -0.824529
H      -0.560702    1.594575    0.946179
H      -0.769842   -0.829996   -2.988434
H       0.289287    0.612455   -3.163235
H       1.914663   -1.743576   -3.620258
H       2.898409    0.223516   -1.609149
H       0.176812   -3.378080   -0.049804
H      -0.598276   -3.302951   -1.645079
H       0.960399   -4.134411   -1.454046
