15

N      -0.004214    1.447989    0.211817
C      -0.012241    0.016130   -0.032863
C      -1.442000   -0.510244   -0.100299
O      -1.473441   -1.925257   -0.338994
C      -0.724011   -2.445310   -1.330999
O      -0.896035   -3.557443   -1.741869
N       0.274094   -1.605801   -1.838681
C       0.732127   -0.412868   -1.300399
O       1.636947    0.213283   -1.799559
H       0.961292    1.760536    0.267117
H      -0.388675    1.930784   -0.597447
H       0.489611   -0.481557    0.808632
H      -1.957867   -0.356624    0.847002
H      -2.005547    0.002132   -0.891981
H       0.787867   -1.985043   -2.623771
