18

C      -0.105348   -1.231956   -0.158742
C      -0.062518   -0.034112   -0.056184
C       0.022458    1.408790    0.056857
N      -0.286629    2.009322    1.423992
C       0.756242    1.517424    2.346626
C       1.110813    2.615399    1.425431
C       1.417609    2.075968    0.052562
C       2.713159    1.569177   -0.501130
C       2.048591    2.790122   -1.100069
H      -0.161327   -2.288777   -0.248558
H      -0.650601    1.882492   -0.664275
H       0.540195    1.772346    3.379601
H       1.170620    0.524352    2.194084
H       1.281644    3.636229    1.752999
H       3.611967    1.710194    0.090387
H       2.684471    0.642340   -1.064796
H       1.583266    2.695459   -2.076367
H       2.497025    3.760983   -0.913346
