17

C      -0.160524    1.439019    0.126960
N      -0.023057    0.004857   -0.007271
C      -0.103547   -0.737349   -1.139098
C       0.167041   -2.046682   -0.786274
C       0.396269   -1.981491    0.607617
N       0.282801   -0.741240    1.072494
C       0.198565   -3.232728   -1.661044
C       1.260511   -4.253037   -1.579070
O      -0.033355   -4.502842   -1.035101
H       0.817924    1.930342    0.148527
H      -0.737219    1.826162   -0.715295
H      -0.685546    1.657683    1.058048
H      -0.344120   -0.290060   -2.091107
H       0.609369   -2.796972    1.282160
H      -0.300845   -3.116719   -2.623619
H       1.520706   -4.837339   -2.461501
H       2.059236   -4.123660   -0.850141
