15

O       0.011296    0.054686   -0.282976
C       0.060422    1.216546   -0.039097
O      -0.960961    2.032044    0.414102
C      -0.076601    3.196142    0.496116
C       1.063856    2.335484   -0.029804
C       2.520105    2.355625    0.381258
C       3.216792    1.164806   -0.280591
O       2.741965    1.580433   -1.597134
C       2.127844    2.720267   -1.025019
H      -0.428862    3.999695   -0.155406
H       0.007833    3.544800    1.528492
H       2.881471    2.950482    1.209371
H       4.308440    1.222753   -0.236995
H       2.868365    0.163556   -0.015006
H       2.113081    3.648030   -1.586321
