19

C       0.229381    1.474815    0.149868
C       0.028816   -0.008115    0.049685
C       1.103484   -0.945130   -0.366796
C       0.561299   -1.109869    1.038711
C       1.391463   -0.855402    2.221389
O       2.410655   -0.194882    2.201313
C      -0.791661   -1.818059    0.992555
O      -1.388756   -1.791931    2.272265
C      -1.328934   -0.726209    0.007480
H       1.236030    1.700142    0.513786
H       0.105580    1.952009   -0.829866
H      -0.491764    1.928583    0.837647
H       0.909437   -1.733505   -1.091351
H       2.107250   -0.533654   -0.389964
H       1.003102   -1.284994    3.166493
H      -0.765717   -2.842809    0.592158
H      -2.268145   -2.177031    2.203265
H      -2.120066   -0.151078    0.494859
H      -1.670330   -1.055966   -0.979872
