19

C      -0.236034    1.544121    0.014439
C       0.162173    0.065380    0.035748
N       0.755078   -0.386957   -1.201256
C       0.221737   -0.555255   -2.556408
C       1.630754   -1.079760   -2.976452
C       2.410829   -0.287807   -4.016732
C       2.020327   -0.832147   -1.497506
O       3.012983   -0.951859   -0.824835
H       0.635914    2.177838   -0.171526
H      -0.977605    1.745222   -0.765486
H      -0.674682    1.833286    0.974404
H       0.911918   -0.118850    0.811641
H      -0.713197   -0.555515    0.272225
H      -0.597062   -1.280940   -2.626490
H      -0.081356    0.380728   -3.039857
H       1.627005   -2.146878   -3.217570
H       2.394138    0.783769   -3.790915
H       3.456494   -0.608973   -4.031073
H       1.996844   -0.430535   -5.020043
