21

O      -0.030327    1.439233    0.088239
C       0.018887    0.023907   -0.006543
C      -1.412933   -0.516384   -0.029657
C      -1.394916   -2.044077   -0.212411
C      -2.705001   -2.645684   -0.744303
O      -3.903093   -2.033983   -0.284405
C      -3.960425   -1.637942    1.058673
O      -3.539764   -0.318767    1.260016
C      -2.139097   -0.110638    1.266459
H       0.868289    1.769713    0.174263
H       0.538501   -0.293333   -0.924402
H       0.566353   -0.414040    0.845775
H      -1.934126   -0.044492   -0.871518
H      -0.603151   -2.334792   -0.915200
H      -1.126005   -2.508194    0.744897
H      -2.745256   -2.538384   -1.833318
H      -2.722935   -3.724369   -0.523323
H      -5.017399   -1.655293    1.336863
H      -3.395715   -2.333436    1.705130
H      -1.681036   -0.654181    2.112858
H      -2.001084    0.957847    1.438845
