18

C      -0.287493    1.403956    0.071759
C      -0.009036   -0.087441   -0.066649
C       1.001188   -0.561789   -1.138627
O       1.857725   -1.127989   -0.098710
C       0.999399   -0.687798    0.894338
N       1.082944   -0.766025    2.140813
C       2.263249   -1.420225    2.718041
C       3.010509   -0.506303    3.579961
C       3.637382    0.237116    4.285238
H       0.642395    1.981206    0.069258
H      -0.917333    1.762294   -0.748471
H      -0.803561    1.604642    1.014389
H      -0.943092   -0.656379   -0.084399
H       0.662791   -1.336446   -1.830674
H       1.523243    0.231898   -1.680409
H       1.911874   -2.267384    3.321323
H       2.937433   -1.830034    1.953884
H       4.188939    0.894039    4.910729
