20

C       0.469686    0.926196   -0.461480
O      -0.253777    0.044043    0.374294
C       0.513494   -0.620667    1.370264
C      -0.399375   -0.897328    2.555925
C       1.111194   -1.891780    0.806742
N       0.823917   -3.078982    1.149277
C       1.649120   -3.970235    0.320598
C       2.424861   -3.019437   -0.626631
O       2.043236   -1.700546   -0.173160
H       1.201816    0.401663   -1.085847
H      -0.263973    1.420771   -1.103275
H       0.997130    1.692943    0.127353
H       1.349672    0.027319    1.679530
H       0.144977   -1.409996    3.351823
H      -0.793771    0.048202    2.935550
H      -1.231209   -1.533870    2.248107
H       2.312840   -4.561333    0.961190
H       1.011399   -4.674478   -0.222763
H       3.511800   -3.105763   -0.550691
H       2.133501   -3.119504   -1.676401
