16

C       0.331671    1.486340   -0.238386
C      -0.032955    0.022560   -0.036871
O      -1.416436   -0.169170    0.138812
C       0.662842   -0.949939   -1.055402
C       1.638016   -1.350473    0.049780
O       2.705310   -1.876283    0.087497
C       0.738223   -0.687105    1.137327
C       1.343219    0.094200    2.192053
N       1.842589    0.744842    3.007114
H       1.413622    1.624694   -0.321998
H      -0.122628    1.861676   -1.162969
H      -0.025566    2.088813    0.600758
H      -1.886850    0.365744   -0.509684
H       0.000124   -1.779766   -1.321017
H       1.104579   -0.529040   -1.961229
H       0.077072   -1.454632    1.556440
