19

C      -0.139756    1.625000    0.154037
C      -0.105303    0.129730    0.139853
C      -0.261776   -0.687011   -0.902959
C      -0.112343   -2.157393   -0.540297
C      -0.091079   -2.113983    1.019297
C       0.241283   -0.652209    1.394624
O       1.602424   -0.437096    1.778403
C      -1.162096   -3.009277   -1.089752
C      -2.031110   -3.706055   -1.542462
H       0.789515    2.022578    0.577468
H      -0.275316    2.041323   -0.847459
H      -0.955190    1.991655    0.790366
H      -0.459904   -0.375940   -1.922968
H       0.848637   -2.530699   -0.926263
H      -1.084582   -2.375612    1.391595
H       0.626537   -2.810292    1.458515
H      -0.330559   -0.322994    2.268776
H       2.149108   -0.590610    0.999347
H      -2.797304   -4.322474   -1.942616
