16

C      -0.066362    1.496308    0.001656
C       1.423569    1.893668   -0.026175
N       2.198747    1.469064    1.156575
C       2.288846    0.669526   -0.098240
C       1.341253   -0.473437   -0.098344
C       0.074231    0.006613   -0.027833
O      -0.834402   -0.985539    0.077224
C      -0.107024   -2.149969    0.051486
C       1.229765   -1.899316   -0.048223
H      -0.562069    1.865992    0.906001
H      -0.605460    1.900357   -0.864415
H       1.704911    2.813399   -0.527383
H       3.021700    2.065649    1.229864
H       3.223665    0.656822   -0.647715
H      -0.687589   -3.055989    0.103390
H       2.010956   -2.642735   -0.080141
