19

C      -0.042249    1.449522   -0.133062
C       1.295529    0.778263    0.016951
C      -0.003698   -0.042283    0.027153
C       0.433035   -0.766786   -1.267025
C       1.755011    0.064650   -1.276658
C       1.380425    0.684945   -2.657768
C       0.075217   -0.138726   -2.624910
C      -0.680694   -0.706266   -3.743249
O      -1.202309    0.376169   -2.961925
H      -0.370604    1.984085    0.753232
H      -0.364464    1.912347   -1.059751
H       1.954834    1.021892    0.841661
H      -0.496960   -0.535426    0.855841
H       0.443990   -1.855378   -1.205483
H       2.720034   -0.434550   -1.204148
H       1.245931    1.769152   -2.683636
H       2.056075    0.396144   -3.467765
H      -0.404745   -0.453252   -4.766867
H      -1.196500   -1.658879   -3.623373
