18

C      -0.082656    1.594391    0.097751
C       1.403655    1.252496   -0.001262
N       1.244067   -0.007896    0.897698
C       1.967082   -0.859765   -0.147194
C       1.144698    0.078259   -1.023698
O       0.675874   -0.075558   -2.323877
C      -0.670795   -0.623568   -2.209977
C      -0.987720   -0.901892   -0.688325
C      -0.019344    0.070074   -0.061675
H      -0.433878    1.971830    1.061381
H      -0.507592    2.156318   -0.737492
H       2.289312    1.878667    0.116829
H       3.053759   -0.737720   -0.123205
H       1.695345   -1.919490   -0.109908
H      -1.372147    0.107208   -2.628002
H      -0.724313   -1.535660   -2.811783
H      -2.041520   -0.730629   -0.458107
H      -0.742447   -1.936342   -0.432030
