21

C      -0.092709    1.471118    0.199016
C      -0.019182   -0.057813    0.134166
C      -1.404569   -0.683402    0.163427
O      -2.205734   -0.295730   -0.972042
C      -2.401065   -1.666591   -1.376989
C      -1.581205   -2.204547   -0.192093
C      -0.317323   -2.976049   -0.528691
C       0.310511   -3.762982    0.606253
O       0.167602   -2.953071   -1.637974
H       0.905201    1.915079    0.142136
H      -0.688153    1.856740   -0.632825
H      -0.557939    1.808385    1.132075
H       0.495699   -0.370810   -0.780205
H       0.561169   -0.444532    0.983107
H      -1.913703   -0.418101    1.101567
H      -3.460947   -1.945172   -1.381549
H      -1.951729   -1.874966   -2.352878
H      -2.158324   -2.740077    0.564832
H      -0.358273   -4.579913    0.902799
H       1.270185   -4.174638    0.292063
H       0.444448   -3.129378    1.490165
