14

O      -0.635088    0.906555   -0.672744
C       0.159310    0.982968    0.228061
C       1.389125    1.861763    0.195490
C       1.561914    2.769315   -1.043606
N       1.392237    3.940808   -0.153675
C       1.392834    5.300662   -0.427449
O       1.251021    6.167914    0.391110
C       1.240338    3.182909    1.019886
O       1.067836    3.461977    2.163283
H       0.027842    0.416782    1.172974
H       2.269064    1.292883    0.508086
H       2.543249    2.724554   -1.520012
H       0.763305    2.655367   -1.778218
H       1.543569    5.485200   -1.509833
