18

C      -0.100471    1.303874    0.086096
O       0.014000   -0.098255    0.049940
C       0.541703   -0.573241   -1.164936
C       0.585511   -2.084016   -1.128728
O      -0.764011   -2.571178   -1.191172
C      -0.904237   -3.912651   -1.140995
C      -2.363486   -4.297017   -1.189681
O       0.023752   -4.677846   -1.065919
H       0.876975    1.797963   -0.035526
H      -0.773734    1.679735   -0.700579
H      -0.512489    1.572897    1.061482
H      -0.070199   -0.237790   -2.018828
H       1.566658   -0.194899   -1.323728
H       1.156004   -2.473840   -1.977841
H       1.060451   -2.435553   -0.208396
H      -2.834250   -3.880487   -2.084429
H      -2.452830   -5.382569   -1.190106
H      -2.886466   -3.880495   -0.323957
