15

C      -0.018160    1.410150    0.156085
N      -0.069921   -0.010869   -0.139497
C      -1.229981   -0.715271   -0.064304
N      -1.264146   -2.037237    0.010474
N      -2.615305   -2.284237   -0.000434
C      -3.183213   -3.559971    0.059802
O      -2.569687   -4.586007    0.121205
C      -3.292339   -1.099754   -0.067684
N      -2.467128   -0.091141   -0.107732
H       0.915022    1.819547   -0.237790
H      -0.854069    1.909175   -0.335600
H      -0.072495    1.630051    1.231736
H       0.754558   -0.555779    0.059637
H      -4.286488   -3.485725    0.043199
H      -4.371321   -1.045702   -0.083032
