18

C       0.047914    1.447969   -0.030913
N       0.098692    0.002856   -0.110922
C       0.587884   -0.637509    0.889167
N       1.080894   -0.046828    2.061868
N       1.601905   -0.670085    3.134861
C       1.657882   -1.963906    3.086598
C       1.199278   -2.750136    1.964161
C       1.316231   -4.247403    2.023968
C       0.682311   -2.083926    0.905833
H       1.045320    1.909874    0.078871
H      -0.390072    1.846931   -0.949440
H      -0.571680    1.812714    0.807713
H       1.061502    0.955574    2.152457
H       2.081417   -2.445704    3.962143
H       2.360442   -4.554889    2.153961
H       0.757919   -4.651266    2.876621
H       0.933532   -4.713157    1.113241
H       0.313950   -2.590246    0.020909
