19

C      -0.064555    1.412953   -0.053324
C       1.295879    2.122073   -0.027721
C       2.190807    1.502886   -1.091026
C       3.287923    0.475449   -0.801532
C       3.350102   -0.093855    0.574139
C       2.218229   -0.724768    0.888548
C       1.198947   -0.663948   -0.242058
O       0.007856    0.016675    0.199629
C       1.960336    0.036349   -1.374811
H      -0.734432    1.818780    0.712329
H      -0.533531    1.590854   -1.035147
H       1.145518    3.187044   -0.230685
H       1.733435    2.038962    0.971208
H       2.379474    2.119931   -1.964445
H       4.179120    0.518839   -1.417036
H       4.200961    0.047341    1.231604
H       1.966929   -1.160525    1.848275
H       0.850790   -1.659579   -0.537347
H       1.857356   -0.321113   -2.391367
