15

O      -0.570222    0.904073   -0.810132
C       0.060862    1.127845    0.190216
C       1.357955    1.928938    0.180843
C       1.626494    2.604219   -1.167197
O       2.624098    3.603713   -0.997143
C       2.169570    4.592159   -0.149288
O       1.888188    4.119981    1.184953
C       1.395475    2.881626    1.382016
O       1.044596    2.534862    2.476757
H      -0.250083    0.765643    1.188084
H       2.158010    1.206211    0.400723
H       2.002093    1.894169   -1.904171
H       0.702227    3.047316   -1.562944
H       2.958181    5.336468   -0.034661
H       1.247424    5.059260   -0.528823
