18

N      -0.090320    1.436858    0.109686
C      -0.011545   -0.021023    0.014463
C       0.651220   -0.646125    1.282039
C      -0.017597   -2.005502    1.440302
N      -1.331637   -1.922467    2.109982
C      -1.270241   -2.020749    0.637356
C      -1.429076   -0.671444   -0.051416
C       0.758720   -0.452741   -1.178979
N       1.365138   -0.746854   -2.119549
H       0.845063    1.833752    0.148669
H      -0.523022    1.817109   -0.728266
H       1.735764   -0.721078    1.174642
H       0.423754   -0.000956    2.134898
H       0.587963   -2.894677    1.576311
H      -1.569387   -2.833035    2.498134
H      -1.631241   -2.921687    0.153802
H      -2.120135   -0.031927    0.504290
H      -1.782911   -0.763905   -1.080803
