18

C       0.001820    1.458129   -0.129665
N       0.065154    0.043729    0.198632
C      -1.131854   -0.680052    0.136164
C      -1.341648   -2.051981    0.190365
C      -1.076538   -3.548643    0.307899
C      -2.654055   -3.696506    0.272823
N      -2.674171   -2.234143    0.147155
N      -3.417066   -1.136123    0.085182
C      -2.466592   -0.175436    0.064520
H       1.010562    1.877025   -0.095976
H      -0.433315    1.668702   -1.120793
H      -0.600905    1.984335    0.618322
H       0.818773   -0.424013   -0.285287
H      -0.562482   -4.019737   -0.534038
H      -0.616200   -3.882713    1.241115
H      -3.065624   -4.225741   -0.590704
H      -3.109649   -4.069709    1.193741
H      -2.769475    0.858706    0.001259
