17

C      -0.047267    1.554198    0.068834
C       1.503976    1.418691    0.001499
C       1.796458    0.609192    1.269745
C       2.084879   -0.808080    0.918057
C       2.259138   -0.917005   -0.582900
C       1.281791    0.186367   -0.949183
C       0.029652    0.013582   -0.035945
N       0.690552   -0.394599    1.249945
H      -0.492842    1.980078    0.971197
H      -0.473111    2.016690   -0.825349
H       2.163668    2.248963   -0.248347
H       2.051678    1.068651    2.217835
H       2.552686   -1.498130    1.611517
H       3.287547   -0.710250   -0.898425
H       1.962333   -1.895893   -0.975481
H       1.100910    0.415455   -1.997151
H      -0.822805   -0.615521   -0.289903
