17

C      -0.519106   -0.973649   -0.619569
C      -0.026184    0.061918   -0.259785
C       0.552287    1.320894    0.173313
C      -0.096128    2.029117    1.392250
C       1.314909    1.931972    2.018262
O       1.804395    1.164213    0.897984
C       2.044264    3.241920    2.183337
C       3.333152    3.490323    1.528620
O       2.121850    4.061491    1.017477
H      -0.950081   -1.889307   -0.941887
H       0.696650    1.987522   -0.684634
H      -0.459971    3.038233    1.200747
H      -0.860501    1.435972    1.892520
H       1.378792    1.358871    2.952383
H       1.808099    3.781560    3.103062
H       4.032466    4.199315    1.968363
H       3.760713    2.703926    0.912949
