19

C       0.303395    1.512113   -0.051108
C      -0.049807    0.030482    0.040320
O       0.366431   -0.602004   -1.186688
C       1.197716   -1.720685   -0.999124
C       0.499625   -2.775504   -0.118473
C       0.723127   -2.159700    1.251823
C       1.933488   -1.277928    1.067388
O       2.366243   -1.357529   -0.275519
C       0.582104   -0.643310    1.252189
H       1.388658    1.641237   -0.088664
H      -0.128441    1.943793   -0.958149
H      -0.089417    2.058484    0.813148
H      -1.143986   -0.072050    0.105214
H       1.499522   -2.051748   -1.992795
H      -0.548386   -2.886513   -0.406532
H       0.997433   -3.747200   -0.197109
H       0.550013   -2.728951    2.156394
H       2.748675   -1.173443    1.771351
H       0.372965   -0.163880    2.203342
