23

C      -0.149049    1.771105    0.215930
C      -0.050094    0.259283    0.447714
C      -1.298965   -0.488181   -0.009139
C      -1.570247   -0.599493   -1.541198
C      -1.790770   -2.133189   -1.389540
O      -0.879788   -2.974583   -2.070072
C       0.346152   -2.956894   -1.347640
C      -0.045000   -2.849177    0.137582
C      -1.359084   -2.048742    0.108901
H       0.762209    2.284984    0.537237
H      -0.303910    2.000020   -0.844005
H      -0.989222    2.201474    0.772293
H       0.831019   -0.129103   -0.080073
H       0.122477    0.062674    1.514294
H      -2.166912   -0.054499    0.500611
H      -2.423066   -0.034419   -1.924427
H      -0.699688   -0.369164   -2.163235
H      -2.798923   -2.485052   -1.617940
H       0.891670   -3.871548   -1.594971
H       0.967353   -2.099737   -1.652412
H      -0.237568   -3.846692    0.543565
H       0.739689   -2.389295    0.743705
H      -2.068813   -2.415504    0.852410
