22

C      -0.311281    1.496286   -0.125689
C       0.187389    0.056220    0.068430
C       0.844635   -0.514322   -1.163974
C       2.186621    0.037226   -1.621038
O       2.720028   -0.910497   -2.535540
C       2.166065   -2.189883   -2.265504
C       0.832395   -1.943417   -1.580581
C       0.168209   -3.078830   -0.849618
N       0.036570   -0.944149   -2.335457
H       0.514469    2.177483   -0.353850
H      -1.026926    1.556773   -0.951834
H      -0.805656    1.863256    0.778620
H       0.900701    0.025500    0.902423
H      -0.654715   -0.581951    0.361997
H       2.111257    0.993989   -2.148009
H       2.846317    0.168864   -0.745785
H       2.071192   -2.719209   -3.219859
H       2.818350   -2.780301   -1.599265
H       0.853809   -3.541933   -0.131455
H      -0.718107   -2.744800   -0.301931
H      -0.151961   -3.857998   -1.551094
H      -0.936213   -1.023685   -2.039199
