21

C       0.046901    1.581866    0.109676
C       0.381339    0.104091   -0.127066
C       0.835167   -0.583181    1.144420
C      -0.136773   -1.150933    2.127638
C       0.761844   -2.098647    1.352661
C       0.137919   -2.972061    0.328214
O      -0.898256   -2.761075   -0.260121
O       0.889360   -4.076776    0.123683
C       0.372848   -4.994028   -0.846886
H       0.912106    2.131608    0.497388
H      -0.265681    2.066895   -0.820144
H      -0.766148    1.690363    0.835125
H      -0.488021   -0.418392   -0.533759
H       1.174838    0.025498   -0.881786
H       1.734766   -0.151920    1.579087
H       0.046758   -1.044402    3.190720
H      -1.181509   -1.169321    1.835640
H       1.596415   -2.553356    1.871376
H      -0.615075   -5.355699   -0.550233
H       0.288862   -4.515415   -1.825984
H       1.085370   -5.818309   -0.885110
