20

C      -0.267128    1.553309   -0.100528
C       0.063861    0.065379   -0.040051
O      -1.140995   -0.705562    0.061391
C       0.908435   -0.443259   -1.225683
C       1.474397   -1.776861   -0.726771
C       1.924835   -1.444868    0.706377
C       0.884549   -0.397705    1.222951
C       1.522483    0.688441    1.957647
N       2.044404    1.542059    2.537513
H       0.635600    2.169065   -0.114704
H      -0.837787    1.770317   -1.011237
H      -0.872559    1.849485    0.760390
H      -1.690944   -0.490282   -0.699927
H       0.307688   -0.526744   -2.137281
H       1.721663    0.264522   -1.429315
H       0.678216   -2.526840   -0.711131
H       2.291620   -2.161157   -1.341929
H       1.975320   -2.317077    1.361258
H       2.920098   -0.991281    0.691039
H       0.161034   -0.870207    1.892541
