21

C      -0.524925    1.055966    0.103560
O       0.369600   -0.029968   -0.079168
C       0.860705   -0.580918    1.108611
C       2.044651    0.159127    1.697322
C      -0.078458   -1.239028    2.090184
O      -1.255036   -1.712733    1.444269
C      -0.455001   -2.590397    0.605979
C       0.854120   -2.091479    1.224852
C       2.038475   -2.974283    1.495988
H      -0.047068    1.906692    0.610139
H      -0.832535    1.378283   -0.894197
H      -1.408913    0.745753    0.672244
H       1.797406    1.214713    1.848059
H       2.335705   -0.250088    2.669009
H       2.909968    0.106576    1.028752
H      -0.130129   -1.028026    3.154457
H      -0.667438   -3.638916    0.845043
H      -0.608394   -2.399295   -0.459814
H       2.525767   -3.270458    0.558874
H       2.792137   -2.475368    2.110510
H       1.736925   -3.890183    2.016242
