15

O      -0.667296    0.538285    0.519864
C       0.247914    0.710215   -0.239998
C       1.319972    1.792497   -0.069653
C       1.243486    2.539759    1.280741
N       2.610270    2.342350    1.778674
C       3.236310    1.449048    0.960208
N       2.633278    1.093411   -0.118435
C       1.284918    2.732317   -1.284840
O       1.024129    3.903882   -1.229391
H       0.410823    0.061143   -1.124366
H       1.014502    3.597735    1.132815
H       0.490113    2.087181    1.933025
H       2.833673    2.413546    2.757794
H       4.229472    1.092169    1.217589
H       1.558872    2.232524   -2.236138
