19

C       0.525558    0.609341    0.320776
N       0.276946   -0.581323   -0.483957
C       1.107665   -1.694210   -0.041963
C      -1.126425   -0.957616   -0.542070
C      -1.952788   -0.036136   -1.468728
C      -3.104939   -0.785494   -2.174120
O      -3.170978   -1.979981   -2.247957
C      -2.496675    1.160770   -0.829975
N      -2.969718    2.092191   -0.334597
H       1.588647    0.862748    0.273211
H      -0.038888    1.462542   -0.062421
H       0.252194    0.473341    1.383975
H       0.894988   -2.013780    0.995467
H       0.959855   -2.555222   -0.700556
H       2.161274   -1.403363   -0.092347
H      -1.200310   -1.957450   -0.976107
H      -1.606423   -1.000196    0.452572
H      -1.284409    0.292901   -2.280123
H      -3.862194   -0.122217   -2.639443
