18

C      -0.106460    1.602401    0.138351
C      -0.002109    0.086573    0.076612
C      -1.341310   -0.592399   -0.268293
C      -1.921858   -0.127004   -1.525918
N      -2.384428    0.246969   -2.516406
O       1.033866   -0.344680   -0.843841
C       1.886510   -0.787014    0.232310
C       0.752398   -0.578908    1.260244
O       0.974503    0.276520    2.349797
H       0.856841    2.040135    0.404325
H      -0.415836    1.989589   -0.836103
H      -0.837835    1.912514    0.890674
H      -1.188975   -1.674511   -0.335947
H      -2.058574   -0.408215    0.540512
H       2.249662   -1.808841    0.077096
H       2.736475   -0.112139    0.394779
H       0.285923   -1.520835    1.577841
H       1.384912   -0.225369    3.060420
