15

C       0.305669    0.001168   -1.295119
C       0.117116    0.612982   -0.277866
C      -0.078244    1.362426    0.970212
N       1.024913    2.228756    1.362078
C       1.366019    3.289490    0.535306
C       0.632189    3.967095   -0.416157
N       1.488349    4.944367   -0.825418
N       2.661384    4.880280   -0.192866
N       2.594146    3.873360    0.637221
H       0.471459   -0.540841   -2.193323
H      -0.985945    1.974412    0.893621
H      -0.258732    0.662560    1.792999
H       1.847846    1.730095    1.673845
H      -0.352013    3.840675   -0.829650
H       1.340773    5.658329   -1.520165
