14

O       0.056383    0.021737    0.100468
C      -0.035787    1.212076    0.086614
C      -1.292191    2.075923    0.068958
C      -0.784705    3.454341    0.493120
C       0.686359    3.416192    0.006241
O       1.065699    2.024416    0.088051
C       0.852729    3.911210   -1.358218
C       0.971110    4.330799   -2.477539
H      -1.682573    2.081062   -0.954511
H      -2.055764    1.645127    0.716819
H      -1.334367    4.290196    0.060704
H      -0.798385    3.553408    1.582068
H       1.354749    3.959082    0.679904
H       1.088365    4.697683   -3.467742
