15

N       0.105007    1.222802    0.684316
C       0.029588    0.111628    0.111329
C      -1.086751   -0.870416   -0.175999
C       0.036420   -1.706340   -0.826129
C      -0.052545   -1.949885   -2.329968
C       1.151716   -2.556531   -2.882492
C       2.148827   -3.064952   -3.318386
O       1.005491   -0.658680   -0.491570
H       1.062752    1.578000    0.680536
H      -1.560821   -1.301179    0.706747
H      -1.854653   -0.500184   -0.858678
H       0.295880   -2.627054   -0.297315
H      -0.918254   -2.599779   -2.516669
H      -0.260848   -0.995734   -2.830147
H       3.031377   -3.506466   -3.710474
