17

O      -0.363607    0.056790   -0.712724
C      -0.138244    1.099843   -0.205795
O      -1.089588    2.039835    0.269547
C       0.007909    2.712303    0.995657
C       0.903764    3.995286    1.046486
C       2.033542    2.843270    1.088216
C       1.789972    2.207801    2.460491
C       0.238188    2.091923    2.389986
C       1.026272    2.105630    0.098986
H       0.927220    4.574289    0.124331
H       0.830263    4.645197    1.922880
H       3.055040    3.065183    0.782610
H       2.279873    1.237324    2.565936
H       2.138527    2.853440    3.271320
H      -0.279642    2.646533    3.176409
H      -0.107470    1.055895    2.423556
H       1.054460    2.673844   -0.838217
