22

C      -0.322011    1.494082   -0.112271
C      -0.028718   -0.014080   -0.002194
C       0.920595   -0.233719    1.195790
C      -1.353491   -0.764628    0.235207
C       0.659561   -0.547923   -1.277453
C       0.906751   -2.044139   -1.366475
C       0.610249    0.189531   -2.552273
O       1.777984    0.238532   -1.727360
H       0.573413    2.045495   -0.410446
H      -1.118470    1.702473   -0.833337
H      -0.652948    1.879212    0.857323
H       0.478226    0.176643    2.109268
H       1.118661   -1.294015    1.377442
H       1.878257    0.267332    1.025737
H      -2.022474   -0.673393   -0.627743
H      -1.194889   -1.829174    0.429922
H      -1.872190   -0.345416    1.103842
H      -0.031491   -2.599462   -1.457122
H       1.519310   -2.259512   -2.245140
H       1.438694   -2.420874   -0.488560
H       0.724372   -0.361567   -3.485817
H       0.064186    1.124597   -2.641762
