20

C      -0.151514    1.534367   -0.051075
C      -0.013572    0.009868   -0.102596
C       0.828960   -0.497875   -1.291284
C       2.276630   -0.073336   -1.127632
O       2.888942    0.637702   -1.881686
C       0.777671   -2.014817   -1.407887
C      -0.314094   -2.675325   -2.212570
C       1.108592   -2.692048   -2.714153
H       0.822986    2.027951    0.025076
H      -0.640326    1.915807   -0.953872
H      -0.750757    1.844384    0.810238
H       0.433211   -0.356571    0.832026
H      -1.003922   -0.455210   -0.166314
H       0.466084   -0.047779   -2.223091
H       2.764777   -0.494194   -0.214166
H       1.086463   -2.539049   -0.506154
H      -0.741012   -3.599359   -1.838732
H      -1.024141   -2.033395   -2.723805
H       1.355237   -2.058170   -3.559457
H       1.655367   -3.627853   -2.686768
