17

O      -0.080027    1.446309    0.017044
C      -0.002291    0.055088    0.045040
C      -0.365064   -0.759618   -1.179881
C      -1.253756   -0.800790    0.045879
C      -1.047704   -1.926772    1.050675
C       0.385060   -1.717799    1.541199
C       0.926126   -0.610279    1.003434
C       1.008772   -2.621876    2.431794
C       1.496033   -3.417467    3.195412
H       0.570079    1.771192   -0.614744
H      -0.759434   -0.202513   -2.024174
H       0.241996   -1.622529   -1.435517
H      -2.222176   -0.322184   -0.029153
H      -1.754333   -1.869676    1.887257
H      -1.171908   -2.919180    0.601701
H       1.922758   -0.239043    1.210472
H       1.938779   -4.107916    3.869454
