19

C       0.102422    1.391683   -0.056888
O       0.158071   -0.013695   -0.058506
C       0.524425   -0.548161    1.200091
C       0.544266   -2.053962    1.070346
C       1.757794   -2.718446    0.367123
O       2.610772   -2.380906    1.528734
C       1.345079   -2.883204    2.112053
C       1.434736   -4.056085    1.110636
O       0.261175   -4.773222    0.861135
H       1.075800    1.840398    0.198059
H      -0.180561    1.710665   -1.063255
H      -0.644939    1.771344    0.658620
H       1.513045   -0.180040    1.508879
H      -0.205623   -0.243779    1.970615
H      -0.429847   -2.461358    0.795227
H       2.168026   -2.539808   -0.626758
H       1.265401   -2.906993    3.199517
H       2.316845   -4.686955    1.262617
H       0.429269   -5.391777    0.143567
