14

N      -0.070498    1.292932    0.196177
C       0.023731    0.039975    0.073064
N       1.139537   -0.771832   -0.094229
C       0.896118   -2.139754   -0.138375
O       1.731716   -2.988650   -0.302286
C      -0.603202   -2.328680    0.080894
C      -1.197211   -0.898376    0.040387
C      -2.149649   -0.623146    1.111099
N      -2.912043   -0.454161    1.961832
H       0.835971    1.761469    0.176939
H       2.080035   -0.412111   -0.172733
H      -1.016524   -2.991994   -0.679838
H      -0.752709   -2.807030    1.052254
H      -1.705325   -0.723299   -0.914246
