17

O      -0.104889    1.423083    0.098624
C      -0.037595    0.029236    0.058610
C      -0.313673   -0.733044   -1.209722
C      -1.297104   -0.793493   -0.051268
C      -1.234382   -1.946440    0.956755
C       0.126073   -1.829638    1.643744
N       1.285176   -2.012803    0.743584
C       0.842375   -0.647152    1.100474
H       0.615989    1.769368   -0.438428
H      -0.635728   -0.141302   -2.060780
H       0.300753   -1.596076   -1.435339
H      -2.246804   -0.291900   -0.199382
H      -2.025661   -1.822157    1.704324
H      -1.371730   -2.929033    0.492813
H       0.224768   -2.141467    2.679134
H       2.102929   -2.259343    1.296335
H       1.480235   -0.011687    1.705418
