15

N       0.009435    1.253916   -0.023453
C       0.010981   -0.090163   -0.035016
O       0.997350   -0.807952   -0.071807
C      -1.393079   -0.696762    0.003384
N      -2.410502    0.080356    0.041910
N      -1.328123   -2.052461   -0.010555
C      -2.501714   -2.888503    0.019071
C      -2.142768   -4.305988   -0.004222
N      -1.866763   -5.426658   -0.022409
H       0.880261    1.755599   -0.046278
H      -0.878806    1.730608    0.008179
H      -3.301778   -0.413607    0.065333
H      -0.395611   -2.443640   -0.042798
H      -3.101644   -2.698648    0.922329
H      -3.156864   -2.683633   -0.841531
