22

C       0.154974    1.493350    0.337683
C      -0.176510    0.006522    0.385067
O      -0.508344   -0.311766    1.726276
C      -1.331804   -0.364794   -0.563346
C      -1.512143   -1.867127   -0.681524
N      -1.777239   -2.623115    0.569681
C      -2.789135   -2.612230   -0.508704
C      -4.118028   -1.999489   -0.134426
O      -4.852374   -2.867899    0.712823
H       0.931379    1.723671    1.072313
H       0.514801    1.786527   -0.653598
H      -0.729716    2.090271    0.582398
H       0.720578   -0.560075    0.070738
H      -0.982007   -1.157724    1.706597
H      -2.238256    0.119784   -0.188056
H      -1.139027    0.038828   -1.564560
H      -0.800042   -2.336455   -1.359152
H      -1.261214   -3.497610    0.575634
H      -2.886228   -3.535538   -1.077336
H      -3.969736   -1.018761    0.336343
H      -4.730732   -1.852962   -1.030227
H      -4.307803   -3.004938    1.496556
