19

C       0.270293    1.624633    0.327625
O       1.554365    1.467277   -0.340093
C       1.281238    0.089776   -0.579512
C       1.719732   -0.554168   -1.874274
O       1.660879   -1.949493   -1.605302
C       2.127419   -2.150635   -0.263743
C       1.655237   -0.941265    0.544852
C       0.172557   -0.911324    1.032566
C      -0.158439    0.179012   -0.015546
H       0.388772    1.844789    1.396146
H      -0.319002    2.419067   -0.142247
H       1.066253   -0.348765   -2.726178
H       2.742365   -0.221598   -2.123846
H       1.725518   -3.109311    0.076940
H       3.227008   -2.210335   -0.252247
H       2.394571   -0.594151    1.267986
H      -0.355817   -1.849861    0.841857
H       0.020067   -0.634063    2.079420
H      -1.055262    0.068017   -0.625062
