17

C      -0.029688   -1.160639   -0.024609
C      -0.011263    0.041552    0.000840
C       0.018197    1.472184    0.013727
C       0.413459    2.264792   -1.217364
C       1.291719    2.314492    0.009364
C       1.082610    3.367180    1.072307
C      -0.004390    4.413698    0.907237
C      -0.301736    3.119630    1.616073
O      -0.912008    2.077515    0.891577
H      -0.048012   -2.222177   -0.040409
H       0.784502    1.693315   -2.060764
H      -0.202539    3.115401   -1.481950
H       2.260885    1.834036   -0.033312
H       1.921197    3.580028    1.723559
H       0.080375    5.300844    1.526427
H      -0.439777    4.592387   -0.068413
H      -0.556550    3.107098    2.670283
