21

C      -0.059696    1.490912   -0.105283
C      -0.037965   -0.037468   -0.051406
C      -1.393694   -0.587829   -0.492854
C       1.296636   -0.695553   -0.529742
O       1.987986   -0.085465    0.625567
C       0.725575   -0.642055    1.194023
C       0.461383   -0.467228    2.656451
C       1.097317   -1.929859    0.411084
O       0.144080   -2.941965    0.230118
H       0.894627    1.918312    0.201341
H      -0.286038    1.831029   -1.122379
H      -0.849092    1.884721    0.545709
H      -2.180904   -0.205205    0.167762
H      -1.625181   -0.225678   -1.501634
H      -1.442033   -1.673266   -0.493852
H       1.797906   -0.626040   -1.497199
H       0.337573    0.590161    2.909179
H      -0.453714   -0.999870    2.934073
H       1.288704   -0.871904    3.247682
H       2.062265   -2.329068    0.741042
H       0.571252   -3.677838   -0.218470
