18

O       0.045477    1.257914   -0.169229
C      -0.053704   -0.143986   -0.024011
C       0.067885   -0.602453    1.437035
C      -1.384222   -0.432447    1.658630
C      -1.543724   -0.550666    0.092014
C      -1.436807   -2.046010    0.333890
C      -2.463588   -3.110251    0.172604
C      -1.132117   -3.196989   -0.564861
N      -0.808585   -1.809861    1.661394
H       0.956515    1.514308    0.006571
H       0.542032   -0.668594   -0.784089
H       0.895255   -0.469985    2.123693
H      -1.978158   -0.017436    2.460790
H      -2.286387   -0.088403   -0.554663
H      -2.616728   -3.782404    1.010167
H      -3.355885   -2.889352   -0.404015
H      -1.126435   -3.033096   -1.637971
H      -0.413990   -3.930468   -0.214195
