25

C      -0.098071    1.473985    0.044548
C      -0.082597   -0.049529   -0.101392
C       0.779056   -0.513709   -1.267886
O       0.750032   -1.922942   -1.326408
C       1.523751   -2.458634   -2.378755
C       1.412760   -3.967400   -2.347656
C       0.059710   -4.629565   -2.730447
C       0.854151   -5.722309   -3.496160
C       2.086533   -4.776274   -3.491484
H       0.909475    1.868724    0.216357
H      -0.493613    1.957934   -0.855435
H      -0.722813    1.782407    0.887742
H       0.294800   -0.515951    0.815893
H      -1.100500   -0.428579   -0.247968
H       0.406993   -0.082051   -2.214316
H       1.817008   -0.156507   -1.142840
H       1.167887   -2.073126   -3.351597
H       2.579651   -2.148198   -2.278093
H       1.748727   -4.327573   -1.369482
H      -0.598072   -4.946488   -1.918615
H      -0.513847   -3.991548   -3.411069
H       1.023721   -6.609163   -2.878732
H       0.469270   -6.046827   -4.465810
H       2.146352   -4.188248   -4.413847
H       3.069354   -5.212489   -3.296687
