10

N      -0.038675    1.308485    0.153854
C      -0.047484   -0.040967    0.036227
N      -1.089237   -0.827453   -0.039248
C      -0.479297   -2.054660   -0.077843
O      -1.181843   -3.184762   -0.156254
N       0.828049   -2.071895   -0.036508
O       1.125116   -0.672567    0.041755
H       0.820411    1.780370   -0.078263
H      -0.890792    1.777886   -0.105102
H      -2.113272   -2.933867   -0.167231
