19

C      -0.261071    1.553420   -0.038711
C       0.050845    0.060087   -0.043524
C       1.225961   -0.486110   -0.928503
C       1.803180   -1.209402    0.288829
O       2.446564   -2.431921    0.272671
C       2.123855   -0.237876    1.378363
O       2.606388    1.065865    1.181109
C       0.680992   -0.594951    1.191029
O      -0.078267   -1.165596    2.199179
H       0.634037    2.139678    0.177138
H      -0.663769    1.871034   -1.007030
H      -1.015777    1.786895    0.720999
H      -0.856878   -0.505137   -0.282360
H       0.886271   -1.169131   -1.712001
H       1.876656    0.271173   -1.375657
H       1.841296   -3.087792   -0.091477
H       2.545796   -0.752463    2.245075
H       3.517184    1.000218    0.873620
H      -0.020982   -0.609066    2.982881
