15

C      -0.005140    1.421315   -0.014154
O       0.015164   -0.015193   -0.029271
C       0.619439   -0.564880   -1.078259
O       1.135128    0.037173   -1.988650
C       0.591378   -2.110560   -1.007439
O       0.074995   -2.692676   -0.095482
C       1.279386   -2.769963   -2.202047
C       1.268017   -4.220460   -2.162336
C       1.260265   -5.420370   -2.132506
H       1.013797    1.815963   -0.008780
H      -0.528523    1.803537   -0.893902
H      -0.531034    1.698072    0.898442
H       0.799696   -2.386296   -3.112327
H       2.302598   -2.374570   -2.253176
H       1.252945   -6.481863   -2.105506
