20

O       0.175745    0.864503   -1.319885
C       0.017348    0.234243   -0.055160
C      -1.326214   -0.459626    0.032085
C      -1.480184   -1.933581   -0.213019
C      -0.327147   -2.848047   -0.403059
C       0.270796   -3.414891    0.645184
C      -0.176822   -3.114040    2.053954
C      -0.744179   -1.691631    2.179028
N      -1.719124   -1.366210    1.117662
H       0.152144    0.172916   -1.989327
H       0.840076   -0.462900    0.149069
H       0.074114    1.041820    0.683762
H      -2.137587    0.188531   -0.298647
H      -2.392643   -2.254834   -0.718859
H      -0.029310   -3.088993   -1.420861
H       1.078700   -4.127230    0.502865
H      -0.935002   -3.849255    2.358935
H       0.654190   -3.230026    2.758084
H      -1.262093   -1.582208    3.138603
H       0.090460   -0.981646    2.192973
