18

O      -0.125483    1.343285    0.009979
N       0.027031   -0.062776    0.004588
C      -1.096877   -0.651591    0.010961
C      -1.305287   -2.122488    0.007987
C      -2.613089   -2.336547    0.770545
C      -3.091151   -0.957744    1.228963
C      -2.534736   -0.150881    0.022936
C      -3.108668   -0.950411   -1.179763
C      -2.624058   -2.331960   -0.736746
H       0.790360    1.640184    0.004219
H      -0.495917   -2.837244   -0.000080
H      -2.780388   -3.238005    1.344946
H      -4.181174   -0.889527    1.308370
H      -2.646413   -0.646260    2.178759
H      -2.676293    0.924978    0.027239
H      -4.199727   -0.881754   -1.242896
H      -2.677774   -0.633135   -2.134014
H      -2.799739   -3.229910   -1.314129
