21

C      -0.113298    1.499310    0.130449
C      -0.022273   -0.021402    0.031913
C      -1.347220   -0.625864   -0.414147
O       1.055820   -0.415074   -0.869948
C       1.928496   -0.745120    0.228215
C       0.749022   -0.668742    1.227654
O       0.894929    0.175005    2.341298
C       0.247776   -2.032494    1.689822
O       1.165789   -2.457693    2.697533
H       0.840891    1.934987    0.431300
H      -0.395312    1.907272   -0.845171
H      -0.864367    1.797739    0.867666
H      -1.636412   -0.194335   -1.377733
H      -1.279259   -1.708430   -0.543811
H      -2.142146   -0.402739    0.305077
H       2.417101   -1.716139    0.092650
H       2.686602    0.026951    0.410747
H       1.222292   -0.387512    3.056005
H      -0.766834   -1.933344    2.100944
H       0.220596   -2.743684    0.854234
H       0.798541   -3.223198    3.147708
