19

C      -0.279360    1.466528    0.144693
N      -0.106916    0.026545    0.296251
C       1.155854   -0.552028   -0.135153
C       0.810674   -0.486204    1.328046
C       1.553634    0.427478    2.159767
C       2.155278    1.164718    2.895789
C       0.325383   -1.727968    2.043817
C      -1.004729   -1.721787    2.696321
N      -0.772630   -2.506813    1.469438
H       0.645142    2.039174    0.301288
H      -0.650474    1.663352   -0.865426
H      -1.027171    1.817922    0.861292
H       1.092485   -1.506391   -0.651459
H       1.932159    0.123427   -0.489008
H       2.694544    1.815000    3.539473
H       1.126745   -2.320369    2.479085
H      -1.175191   -2.304290    3.596923
H      -1.595161   -0.812839    2.615522
H      -1.146772   -1.970695    0.685432
