19

C      -0.078306    1.539777   -0.067359
C       0.031360    0.018302    0.029144
O       0.628355   -0.404036   -1.183732
C       0.905152   -1.787306   -1.249996
C       1.803187   -2.256339   -0.110005
O       2.519138   -3.231658   -0.219854
C       1.659469   -1.492447    1.136182
C       0.797915   -0.467194    1.248431
C       0.520965    0.200717    2.564506
H       0.916298    1.994743   -0.078187
H      -0.584536    1.798366   -1.000070
H      -0.650757    1.954188    0.765370
H      -0.992846   -0.401577    0.101369
H      -0.024605   -2.385102   -1.224345
H       1.399757   -1.976777   -2.204945
H       2.228999   -1.852919    1.988392
H       1.033243   -0.311766    3.381562
H       0.842815    1.248292    2.557910
H      -0.554534    0.205956    2.782032
