20

C      -0.402584    0.739179    0.856359
C       0.032436   -0.647271    0.477710
C      -0.789522   -1.851815    0.986565
C      -0.302441   -3.214327    0.548589
C       0.511988   -2.413429    1.510267
N       1.330204   -1.242258    0.998307
C       1.134398   -0.930809   -0.462647
C       1.223809   -1.869245   -1.664873
O       2.042733   -3.009426   -1.449954
H       0.404658    1.460112    0.701375
H      -1.265187    1.051024    0.254952
H      -0.696958    0.778142    1.911018
H      -1.729357   -1.713576    1.504815
H      -0.852108   -4.012674    1.042076
H       0.048797   -3.479957   -0.435400
H       0.779753   -2.756637    2.501321
H       1.727347   -0.032329   -0.635041
H       0.237343   -2.228655   -1.971717
H       1.619762   -1.277362   -2.503561
H       2.672364   -2.786042   -0.756549
