15

C      -0.038827    1.554986    0.018350
C      -0.002220    0.010888    0.029881
C       0.737403   -0.525517    1.275249
C      -1.376795   -0.513907    0.010096
N      -2.462448   -0.906842    0.030247
C       0.712359   -0.491453   -1.242948
F       1.974551   -0.040612   -1.275703
F       0.754478   -1.826745   -1.285193
F       0.097186   -0.063946   -2.349911
H       0.981816    1.943887    0.015186
H      -0.562862    1.928082   -0.863130
H      -0.552352    1.918138    0.910692
H       0.231677   -0.183134    2.180168
H       0.759581   -1.616533    1.278315
H       1.763029   -0.149969    1.280100
