15

N       0.051329    1.392846    0.142548
C       0.000883    0.000773    0.056250
C      -1.095816   -0.817482    0.029883
N      -0.637344   -2.141899    0.007130
C       0.714491   -2.172130    0.024713
N       1.427018   -3.363365    0.091857
C       1.165691   -0.853071    0.043281
C       2.513540   -0.452636    0.006876
N       3.627075   -0.123234   -0.034277
H       0.897619    1.784048   -0.250157
H      -0.759245    1.854281   -0.246444
H      -2.148792   -0.595518    0.013517
H      -1.218955   -2.952567    0.127718
H       1.190099   -4.026731   -0.636723
H       2.426100   -3.199912    0.092198
