18

C       0.022651    1.388970   -0.266110
C      -0.025313   -0.049843    0.171953
O       0.936889   -0.683935    0.542235
C      -1.424067   -0.709603    0.122072
O      -2.404559   -0.092893   -0.264073
N      -1.401939   -1.990642    0.540639
C      -2.566948   -2.849245    0.562927
C      -2.273102   -4.179247   -0.115844
O      -1.198476   -4.777221    0.596969
H       1.042406    1.767227   -0.194222
H      -0.351234    1.475702   -1.291189
H      -0.656687    1.985661    0.350724
H      -0.506562   -2.372334    0.812976
H      -2.878043   -3.040477    1.598315
H      -3.376798   -2.320887    0.054595
H      -3.176067   -4.808122   -0.089487
H      -2.006845   -4.004903   -1.168644
H      -0.886285   -5.540165    0.102648
