13

O       0.223392    1.286661    0.431272
C       0.000756   -0.033586    0.038297
C      -1.474217   -0.397411   -0.176401
O      -1.457273   -1.470755   -1.151383
C      -0.339726   -1.405734   -1.929744
N      -0.088024   -2.100103   -2.951218
C       0.573065   -0.357338   -1.334546
O       1.514440    0.194968   -1.836545
H       0.988514    1.596071   -0.076003
H       0.442696   -0.753586    0.750899
H      -1.983399   -0.774000    0.710479
H      -2.018555    0.464262   -0.577536
H      -0.857894   -2.740757   -3.159070
