20

C       0.004661    1.551907   -0.005982
C      -0.035937    0.014407    0.023356
C      -1.507860   -0.458051    0.053879
C       0.673317   -0.539820   -1.234908
C       1.014702   -2.023424   -1.184062
O       1.018629   -2.757529   -2.150425
N       1.398581   -2.463514    0.065880
C       1.321466   -1.682902    1.224236
C       0.684959   -0.511385    1.248854
H       1.035304    1.921096   -0.002434
H      -0.493057    1.939228   -0.901563
H      -0.506222    1.971270    0.867648
H      -2.056697   -0.073737   -0.813698
H      -1.575454   -1.550268    0.041519
H      -2.010600   -0.102109    0.958666
H       0.084975   -0.368901   -2.139577
H       1.630295   -0.015735   -1.366753
H       1.716039   -3.419484    0.115709
H       1.814405   -2.108513    2.090601
H       0.644639    0.057422    2.170796
