16

O      -0.014133    1.369635    0.156930
C       0.028213   -0.036132    0.009091
C      -1.428741   -0.555767   -0.097931
C      -1.315561   -1.917275   -0.792701
C      -0.078451   -1.803029   -1.690850
O       0.244895   -2.569584   -2.556156
C       0.683196   -0.526464   -1.303197
C       0.706311   -0.646747    1.174939
N       1.255184   -1.108278    2.081521
H       0.882063    1.696754    0.295896
H      -1.921882   -0.586612    0.874219
H      -1.961658    0.164992   -0.725984
H      -1.123846   -2.722114   -0.071661
H      -2.194877   -2.207276   -1.371209
H       0.491386    0.233501   -2.070577
H       1.759980   -0.697126   -1.252332
