19

C      -0.396031    1.674845    0.075246
C      -0.086021    0.186314    0.109560
C       1.089354   -0.329032   -0.812340
C       1.844254   -0.842765    0.425955
O       2.723219    0.148901    0.996387
C       1.738161    0.515667    1.992568
C       0.684053   -0.400431    1.357309
C      -1.328051   -0.642736   -0.132544
O      -2.430279   -0.204109   -0.337495
H       0.515073    2.272091    0.161409
H      -0.885924    1.934884   -0.867244
H      -1.078660    1.956217    0.882852
H       0.788569   -1.118111   -1.508982
H       1.614087    0.453344   -1.363978
H       2.297108   -1.837358    0.398284
H       2.048336    0.192107    2.994693
H       1.539989    1.592157    2.012916
H       0.124324   -1.063345    2.017324
H      -1.149511   -1.744824   -0.110331
