18

C       0.072093    1.416039    0.220166
C       0.047282   -0.027777    0.059578
C       0.007414   -1.227014   -0.074265
C      -0.040736   -2.666819   -0.257135
O      -1.084470   -3.239285   -0.494171
C       1.297190   -3.395760   -0.129185
C       1.813916   -3.289378    1.319868
C       1.181868   -4.847408   -0.595868
H       1.085425    1.815865    0.110087
H      -0.570306    1.903697   -0.520772
H      -0.294842    1.698887    1.213054
H       2.004986   -2.853632   -0.772072
H       2.804903   -3.745765    1.400803
H       1.889561   -2.247772    1.643154
H       1.143049   -3.814059    2.008451
H       0.831433   -4.906199   -1.629500
H       2.153851   -5.345634   -0.529517
H       0.467218   -5.397300    0.022470
