23

C       0.035452    1.498788    0.244563
C      -0.011613    0.027488   -0.176024
C      -1.372233   -0.629297    0.078845
C      -1.424368   -2.104023   -0.344820
C      -2.787476   -2.736390   -0.143338
C      -2.946994   -4.209091    0.030322
N      -3.254614   -3.300080    1.128432
C      -2.376595   -3.327999    2.287311
H       1.019163    1.938901    0.053251
H      -0.706256    2.091080   -0.302940
H      -0.177664    1.611945    1.313412
H       0.237272   -0.058000   -1.242290
H       0.766179   -0.532289    0.360637
H      -1.623787   -0.544600    1.144280
H      -2.152206   -0.072045   -0.458570
H      -1.169843   -2.181625   -1.410982
H      -0.652340   -2.671591    0.187144
H      -3.584121   -2.208688   -0.669545
H      -3.788343   -4.742510   -0.405623
H      -2.028958   -4.794096    0.098607
H      -1.318038   -3.532247    2.062549
H      -2.436988   -2.370648    2.815503
H      -2.727095   -4.109801    2.969261
