16

C       0.108253    1.505514   -0.166481
C       0.079220    0.017002    0.058518
O       1.324949   -0.684014    0.116343
C       0.526453   -0.666811    1.298960
C       1.091428    0.069387    2.511864
C       2.128311   -0.693651    3.196129
C       2.978657   -1.332260    3.753080
C      -0.113355   -1.937080    1.615949
N      -0.650535   -2.925937    1.878014
H       0.901888    1.997531    0.397755
H       0.277320    1.707590   -1.228892
H      -0.853721    1.949210    0.109526
H      -0.684529   -0.512305   -0.513262
H       1.493604    1.030521    2.181410
H       0.266498    0.285121    3.202743
H       3.729610   -1.899245    4.245598
