18

O       0.254852    0.971388   -0.898926
C      -0.044814    0.183548    0.236725
C      -1.486382   -0.247199    0.174717
O      -1.907778   -0.945715   -1.005066
C      -2.509244    0.327983   -0.714753
C      -3.852482    0.229123   -0.012304
N      -3.637638   -0.415586    1.305750
C      -3.182275   -1.811190    1.284548
C      -2.191779   -0.713064    1.432493
H       1.208539    0.987831   -1.014141
H       0.590197   -0.714497    0.286690
H       0.110794    0.746621    1.171880
H      -2.296204    1.114990   -1.432756
H      -4.249259    1.235998    0.162368
H      -4.591287   -0.325715   -0.599824
H      -3.481086   -2.389927    2.154836
H      -3.176625   -2.346438    0.340795
H      -1.723672   -0.491862    2.388072
