21

C       0.017822    1.521529   -0.024865
C      -0.033845   -0.003322    0.043496
C      -1.494787   -0.480338    0.028596
O       0.682415   -0.448399   -1.127376
C       0.718258   -1.850261   -1.313273
C       1.028088   -2.608255   -0.055551
C       1.006009   -2.019140    1.137857
C       0.716635   -0.543778    1.286263
O       1.932174    0.161420    1.539827
H       1.049626    1.870868   -0.067635
H      -0.512545    1.870611   -0.915185
H      -0.453486    1.960789    0.859261
H      -1.970976   -0.191065   -0.912818
H      -1.582611   -1.563257    0.146467
H      -2.049848   -0.011934    0.846942
H      -0.228636   -2.218931   -1.746907
H       1.492197   -2.032736   -2.069134
H       1.258462   -3.665313   -0.164288
H       1.258297   -2.566913    2.041140
H       0.101178   -0.364864    2.175304
H       2.502690   -0.013737    0.781620
