13

O       0.063978    1.153376    0.186294
N       0.042808   -0.245113    0.175883
C      -1.128740   -0.679378    0.001664
C      -2.523770   -0.154152   -0.221732
O      -3.001791   -1.520954   -0.330498
C      -1.689805   -2.084743   -0.101271
C      -1.189347   -2.889106   -1.294661
O      -0.360894   -3.753937   -1.213710
H       0.997726    1.346159    0.327953
H      -2.971310    0.382083    0.623678
H      -2.678391    0.422759   -1.141464
H      -1.631902   -2.692451    0.809185
H      -1.660117   -2.586262   -2.255818
