20

C      -0.112544    1.554500   -0.005036
C       0.059992    0.035419    0.006058
C       0.748786   -0.498279   -1.257075
C       0.897803   -2.020917   -1.217046
C       1.512806   -2.490086    0.078531
N       2.042607   -3.752742    0.053071
C       1.471616   -1.726882    1.200226
C       0.798762   -0.438313    1.271303
O       0.789847    0.232466    2.292356
H       0.854377    2.055977   -0.122657
H      -0.760611    1.868006   -0.829775
H      -0.543570    1.893036    0.938394
H      -0.938554   -0.428484    0.062894
H       0.185321   -0.204388   -2.149470
H       1.742049   -0.039539   -1.344463
H      -0.083725   -2.502843   -1.330254
H       1.506168   -2.372560   -2.060665
H       2.348387   -4.125456   -0.830998
H       2.574415   -4.060852    0.852064
H       1.932774   -2.070760    2.122197
