17

C      -0.053656    1.475501   -0.024705
N       0.125175    0.040463   -0.033570
C       0.658295   -0.664842    1.013179
C       1.277657   -0.029305    2.110018
C       1.814826   -0.819933    3.111000
N       1.790163   -2.157316    3.123771
C       1.198442   -2.741626    2.082141
O       1.164022   -4.093644    2.084623
C       0.622436   -2.066041    1.014192
H       0.910461    1.993199    0.037892
H      -0.529769    1.775201   -0.960476
H      -0.681310    1.823542    0.808545
H      -0.443151   -0.483060   -0.677442
H       1.338249    1.048355    2.179469
H       2.297055   -0.348434    3.964442
H       1.610027   -4.357346    2.901564
H       0.162652   -2.623126    0.205774
