23

C       0.062117    1.540267   -0.238383
C       0.022779    0.046969   -0.044792
O       1.282048   -0.648141   -0.104339
C       0.585767   -0.628273    1.130890
C       1.107674   -0.022663    2.435103
C       0.219566   -1.055838    3.200630
C      -1.073302   -0.460549    3.750889
C       0.081841   -1.875735    1.865660
C      -1.235242   -2.526639    1.469442
H       0.874538    1.989567    0.338083
H       0.216468    1.786493   -1.294240
H      -0.884388    1.994294    0.076148
H      -0.778258   -0.466230   -0.580947
H       2.178620   -0.205371    2.561346
H       0.905346    1.035826    2.621831
H       0.740107   -1.596503    3.995436
H      -1.606413    0.122269    2.991300
H      -1.754689   -1.237771    4.112583
H      -0.859547    0.211784    4.588750
H       0.881744   -2.625782    1.834281
H      -2.065444   -1.813870    1.482044
H      -1.169234   -2.944484    0.458925
H      -1.489788   -3.348717    2.147288
