17

O       0.620991    0.333220   -0.699495
C      -0.198046    0.248381    0.451929
C      -1.483055   -0.495015    0.215860
O      -2.451284   -0.424741    1.233581
C      -3.108946   -1.643147    0.653368
C      -4.203211   -1.106295   -0.228857
C      -3.618793   -0.493167   -1.270525
C      -2.154416   -0.695395   -1.214468
C      -1.871630   -1.843717   -0.265882
H       0.184230    0.923137   -1.322138
H       0.396283   -0.271298    1.211019
H      -0.452529    1.238455    0.861620
H      -3.348644   -2.354196    1.441505
H      -5.245217   -1.057686    0.057231
H      -4.111294    0.137824   -2.000422
H      -1.505193   -0.552434   -2.068753
H      -1.316571   -2.744726   -0.493818
