18

C       0.368239    0.355800   -1.153042
C      -0.345786    0.355035    0.183401
O      -0.203986    1.232700    1.008171
C      -1.223310   -0.777261    0.419373
C      -1.957163   -1.715306    0.616816
C      -2.843645   -2.849840    0.849088
C      -3.245843   -3.575475   -0.426364
C      -4.569328   -4.237986   -0.508780
N      -4.287676   -3.025950   -1.300217
H       0.993252    1.246321   -1.233589
H       0.983692   -0.545184   -1.249943
H      -0.361497    0.332102   -1.969529
H      -2.344298   -3.554213    1.528777
H      -3.743710   -2.507733    1.378355
H      -2.409737   -4.008283   -0.971051
H      -4.691859   -5.147614   -1.089260
H      -5.230067   -4.159585    0.351524
H      -4.719817   -2.214901   -0.862948
