15

C      -0.205401    1.524836    0.066003
C       0.077512    0.015865    0.005424
C       0.807735   -0.480420    1.210978
N       1.971377   -0.035773    1.669675
C       2.178483   -0.811452    2.767449
O       3.265924   -0.685759    3.539896
N       1.244225   -1.704083    3.036553
N       0.368629   -1.466287    2.013978
H       0.727589    2.079851    0.187923
H      -0.694528    1.860456   -0.852701
H      -0.856414    1.769586    0.910544
H      -0.857733   -0.545090   -0.103498
H       0.680979   -0.206127   -0.882710
H       3.797616    0.017804    3.149223
H      -0.473665   -2.012740    1.946257
