17

N       0.075445    1.445249   -0.024255
C      -0.015660    0.012998   -0.030373
C       0.177117   -0.834630   -1.319140
O      -1.016029   -1.592375   -1.031613
C      -1.374188   -0.728352    0.067534
C      -1.392681   -1.477423    1.404369
N       0.002003   -1.429547    1.819871
C       0.792642   -0.546036    1.150314
O       1.933070   -0.232439    1.422989
H       1.019152    1.711654    0.245234
H      -0.116572    1.837362   -0.939687
H       0.074023   -0.240781   -2.239071
H       1.070479   -1.464624   -1.392338
H      -2.288770   -0.161209   -0.128626
H      -2.048337   -0.984937    2.134360
H      -1.739656   -2.505190    1.256279
H       0.343935   -1.875603    2.656572
