17

O      -0.149621    1.326903   -0.055619
N      -0.006329   -0.074819    0.013423
C      -1.127407   -0.656203    0.034661
C      -1.430556   -2.138619    0.021319
C      -2.374219   -2.203851    1.232681
O      -3.082161   -0.938264    1.185189
C      -2.585014   -0.238422    0.033513
C      -3.079439   -0.987943   -1.220475
N      -2.290012   -2.269540   -1.184608
H       0.766613    1.623997   -0.035770
H      -0.597691   -2.837840    0.029176
H      -3.085619   -3.030703    1.144433
H      -1.830011   -2.277772    2.181279
H      -2.829150    0.817080    0.110322
H      -4.151748   -1.191451   -1.145664
H      -2.890312   -0.418168   -2.136545
H      -1.691922   -2.313094   -2.003033
