21

C      -0.230261    1.450204    0.023289
C      -0.021917   -0.058668    0.064811
C       1.082036   -0.658455   -0.876501
C       2.107872   -0.310625    0.241661
C       0.907609   -0.639143    1.174696
C       0.773953   -2.155127    0.939590
O      -0.462593   -2.677511    1.359011
C       0.917311   -2.165165   -0.642723
O      -0.203723   -2.772775   -1.274566
H       0.703878    2.015459    0.081998
H      -0.734854    1.745881   -0.903321
H      -0.862630    1.770976    0.857969
H      -1.002432   -0.547476    0.022576
H       1.209002   -0.329442   -1.909743
H       3.002060   -0.937726    0.320062
H       2.400230    0.738419    0.251661
H       0.855589   -0.294375    2.207861
H       1.596224   -2.704003    1.419542
H      -0.808149   -3.165076    0.596379
H       1.787845   -2.737297   -0.973580
H      -0.872731   -2.094040   -1.416361
