17

O      -0.089237    0.008449    0.226184
C      -0.024225    1.191425    0.112847
C      -1.021812    2.353382   -0.034499
C      -1.545409    2.892718    1.301660
C      -0.417554    3.502785    2.150265
O       0.702466    2.636495    2.301927
C       1.660954    2.693643    1.257454
C       1.086806    2.242248   -0.081713
O       0.066912    3.162658   -0.558770
H      -1.819707    2.207422   -0.769971
H      -2.304104    3.664045    1.125216
H      -2.032893    2.071271    1.839893
H      -0.098736    4.455216    1.708061
H      -0.787681    3.701335    3.160778
H       2.065134    3.712310    1.149174
H       2.472881    2.022286    1.554954
H       1.863539    2.053328   -0.830224
