21

C      -0.300274    1.528373   -0.098729
C       0.146280    0.079859   -0.070044
O       1.412364   -0.122769   -0.740144
C       1.916394   -0.916817    0.355379
C       0.692928   -0.577125    1.230676
C       0.968056    0.320457    2.428246
C       1.696920   -0.409484    3.552640
C       1.905769    0.369220    4.838894
O       2.089332   -1.547062    3.422173
H       0.442775    2.190848    0.353341
H      -0.446192    1.845816   -1.136048
H      -1.252335    1.652132    0.429157
H      -0.631440   -0.545981   -0.534060
H       2.011523   -1.976566    0.089859
H       2.887720   -0.554445    0.711368
H       0.126403   -1.450862    1.557233
H       1.583973    1.185691    2.145441
H       0.041332    0.748238    2.834977
H       0.938127    0.614892    5.291480
H       2.495057   -0.222839    5.539915
H       2.411312    1.320207    4.637962
