19

O      -0.052424    0.064458   -0.593747
C       0.015848    1.176676   -0.131238
C       1.262216    1.961707   -0.000785
C       1.164233    3.484683   -0.069668
C       1.499844    2.835162    1.226469
C       0.568954    2.893266    2.449706
C       1.568866    3.001341    3.622107
O       2.759431    3.542401    3.066895
C       2.916137    2.918469    1.806671
H      -0.897956    1.704838    0.230504
H       2.133362    1.485584   -0.440805
H       1.941460    4.001842   -0.622351
H       0.169513    3.905712   -0.189535
H      -0.074844    3.775988    2.401681
H      -0.072686    2.015138    2.552611
H       1.238156    3.666053    4.423065
H       1.764895    2.006490    4.053309
H       3.345601    1.908589    1.921311
H       3.601052    3.523017    1.205953
