13

C      -0.076042    1.405770   -0.110545
C       1.299045    0.835173    0.105895
C       0.080111   -0.089186    0.141268
C       0.631314   -0.708761   -1.133220
C       0.624413   -1.214628   -2.410312
N       1.716340   -0.678279   -3.057346
N       2.346202    0.178902   -2.292830
N       1.720237    0.095234   -1.102041
H      -0.472786    1.984105    0.720117
H      -0.362476    1.760246   -1.095120
H       1.999684    1.112032    0.879844
H      -0.342259   -0.599373    0.993823
H      -0.020381   -1.920200   -2.905975
