16

C      -0.141034    1.558541    0.019469
C      -0.026647    0.047597    0.114379
O      -1.293552   -0.471914    0.355413
C       0.850877   -0.624088   -1.039259
O       1.878437   -0.921039   -0.057435
C       1.115072   -0.458813    0.998973
N       1.317152   -0.483890    2.231502
C       0.222180   -1.876459   -1.604514
O      -0.091998   -2.808732   -0.905909
H       0.824527    2.015694   -0.210143
H      -0.860331    1.826338   -0.759688
H      -0.497551    1.950463    0.975026
H      -1.209796   -1.419154    0.527992
H       1.227943    0.043321   -1.817864
H       2.201042   -0.936992    2.469253
H       0.014620   -1.872000   -2.695123
