20

C      -0.106654    1.581490   -0.064678
C       0.004929    0.059602   -0.043216
C      -1.353535   -0.585642    0.235425
C       0.710860   -0.617856   -1.234735
C       2.152241   -0.216546   -1.338910
C       1.762087   -1.237149   -0.306280
C       1.128925   -0.555475    0.896574
O       2.009967    0.323060    1.566755
H       0.860909    2.063760   -0.218404
H      -0.781541    1.907630   -0.864229
H      -0.516090    1.957673    0.881282
H      -2.083576   -0.315718   -0.536357
H      -1.278407   -1.678369    0.252742
H      -1.755113   -0.259079    1.201957
H       0.188367   -1.094550   -2.056801
H       2.680960   -0.619062   -2.197125
H       2.490577    0.766732   -1.030159
H       2.173139   -2.238996   -0.307504
H       0.689415   -1.276528    1.599497
H       1.530503    0.733026    2.293836
