21

C      -0.086966    1.573544   -0.226200
C       0.078929    0.063597   -0.047692
C       0.874917   -0.656909   -1.147841
O       1.195583   -1.935487   -0.617398
C       1.404856   -1.801922    0.782990
C       2.817358   -1.303743    1.191904
C       2.217778    0.061190    1.629711
O       2.761822    1.225829    1.045400
C       0.778808   -0.442311    1.226608
H       0.869985    2.095497   -0.189667
H      -0.575958    1.797307   -1.180868
H      -0.715431    1.988764    0.568064
H      -0.919773   -0.393153   -0.042425
H       0.309552   -0.809239   -2.071767
H       1.787533   -0.090650   -1.411392
H       1.064010   -2.723869    1.258218
H       3.306744   -1.873871    1.985227
H       3.505545   -1.236521    0.342859
H       2.282063    0.230445    2.707744
H       2.982259    1.031174    0.128643
H       0.095603   -0.475340    2.077826
