17

O       0.003795    1.361318   -0.429839
C       0.016644    0.039487    0.080509
C      -1.370784   -0.551529   -0.137041
C      -1.467978   -2.005842    0.354639
C      -2.825953   -2.597495    0.147032
N      -3.611622   -2.921836    1.140667
O      -4.756792   -3.413755    0.577573
N      -4.686310   -3.397365   -0.785548
C      -3.514647   -2.901157   -1.065767
H       0.865970    1.756312   -0.271053
H       0.769881   -0.581999   -0.432385
H       0.261116    0.024673    1.155278
H      -2.107115    0.068430    0.385262
H      -1.609443   -0.492678   -1.205360
H      -0.726230   -2.621476   -0.169893
H      -1.233140   -2.062483    1.421854
H      -3.196104   -2.777384   -2.089350
