21

C      -0.181911    1.573185    0.014570
C       0.023864    0.056602   -0.027893
C       0.692363   -0.495118    1.235116
C       0.897204   -2.020634    1.195474
C       1.541079   -2.570067    2.433865
C       2.785051   -3.108498    2.549750
O       3.040993   -3.487967    3.832132
C       1.932212   -3.184006    4.555197
C       0.985053   -2.622972    3.761985
H       0.772833    2.099232    0.125158
H      -0.658795    1.938207   -0.900494
H      -0.816829    1.863128    0.859243
H      -0.944241   -0.441488   -0.172451
H       0.632010   -0.206604   -0.903756
H       1.664971   -0.008233    1.382818
H       0.087610   -0.233304    2.113486
H      -0.076157   -2.505018    1.038981
H       1.509811   -2.280093    0.323467
H       3.576957   -3.289520    1.841137
H       1.975660   -3.429410    5.603593
H       0.006318   -2.288627    4.070901
