18

C      -0.113840    1.511946   -0.114989
C      -0.059273   -0.008381   -0.017097
O       0.866075   -0.466339    0.967483
C      -1.419948   -0.623354    0.280592
O      -2.400288   -0.367583   -0.779927
C      -2.517463   -1.706611   -1.083400
O      -3.146688   -2.195312   -1.962831
C      -1.585859   -2.160626    0.053661
N      -0.512336   -3.048699   -0.309144
H       0.876831    1.915415   -0.340461
H      -0.810603    1.819735   -0.899296
H      -0.459865    1.950009    0.830055
H       0.308621   -0.417001   -0.965696
H       0.715514    0.040303    1.773423
H      -1.809107   -0.255057    1.236993
H      -2.165599   -2.612520    0.865755
H      -0.038871   -2.738639   -1.151034
H       0.182423   -3.076251    0.430412
