19

O      -0.053426    1.358787    0.601263
C       0.025686    0.072398    0.004153
C       0.880077   -0.899563    0.849359
C      -0.102727   -1.410505    1.888322
O      -0.510726   -0.362643    2.823970
C      -1.905770   -0.509648    2.462258
C      -1.532033   -1.387638    1.249564
O      -2.252618   -2.567335    1.027810
C      -1.347598   -0.637783   -0.078374
H      -0.113596    1.215202    1.555724
H       0.443042    0.232024   -0.993991
H       1.228744   -1.742699    0.241009
H       1.754042   -0.406547    1.284574
H       0.195219   -2.321340    2.419866
H      -2.466356   -1.051133    3.238386
H      -2.387616    0.454354    2.270065
H      -2.381339   -3.014280    1.871595
H      -2.150603    0.072421   -0.289046
H      -1.335422   -1.388460   -0.875823
