18

O      -0.747229    0.738121    0.543651
C       0.035327    1.106152   -0.299412
C       1.236348    1.936547   -0.036190
C       1.471256    2.364367    1.399327
C       1.792416    1.172447    2.329462
C       2.120281    1.605409    3.684928
N       2.383417    1.968395    4.750092
C       2.429232    1.664196   -0.952540
C       1.609987    2.888501   -1.170639
H      -0.106593    0.835104   -1.371780
H       2.295173    3.083848    1.435537
H       0.580369    2.875089    1.777596
H       0.931397    0.499575    2.366980
H       2.638946    0.599076    1.934273
H       3.410287    1.768293   -0.502603
H       2.346899    0.851235   -1.666090
H       0.954433    2.925219   -2.034291
H       2.014544    3.849153   -0.873150
