23

C       0.415751    1.554374   -0.055112
C      -0.034854    0.082278   -0.010582
C       0.395509   -0.664778   -1.279320
C       0.468865   -0.557783    1.256651
C       0.020518   -0.219704    2.692678
C       0.483254   -1.649288    3.129508
C       0.910803   -1.912414    1.674686
C       1.049364   -3.243307    1.007317
O       1.870545   -0.884687    1.357357
H       1.507759    1.618794   -0.101001
H       0.006579    2.057985   -0.936447
H       0.083200    2.103494    0.831398
H      -1.132573    0.067607    0.046772
H       1.484937   -0.751556   -1.322324
H      -0.029893   -1.671642   -1.318363
H       0.058868   -0.125948   -2.170520
H       0.541199    0.624373    3.151198
H      -1.059425   -0.077222    2.787129
H       1.293667   -1.702772    3.860958
H      -0.346476   -2.280676    3.458281
H       0.121728   -3.819172    1.091547
H       1.302117   -3.134207   -0.048654
H       1.845650   -3.823973    1.488363
