17

C       0.106342    1.521095   -0.093497
C       1.310436    0.610607    0.114499
C      -0.059585    0.038651   -0.050221
O      -0.746015   -0.617278    1.017041
C      -1.298077   -1.609995    0.112768
C      -0.597601   -0.942753   -1.066118
C      -0.993208   -0.733032   -2.470529
N       0.115904   -1.647575   -2.116868
H      -0.253670    2.077512    0.765185
H      -0.002041    2.032857   -1.044782
H       2.026096    0.502374   -0.695719
H       1.743035    0.566410    1.108101
H      -0.944298   -2.620791    0.342987
H      -2.393608   -1.586807    0.106010
H      -1.876637   -1.222469   -2.872304
H      -0.761303    0.226585   -2.927229
H       1.016459   -1.206549   -2.292694
