17

C      -0.006615    1.499083    0.107115
C       0.001754    0.010651    0.022239
C       0.005816   -0.762798   -1.080947
C      -0.051318   -2.240109   -0.711442
N      -0.004453   -2.278987    0.764101
C       1.226764   -1.744863    1.344055
C       0.020912   -0.870511    1.223067
C       0.059243   -0.301094   -2.419423
N       0.095572    0.051828   -3.523480
H       0.876078    1.863552    0.646080
H      -0.026921    1.959237   -0.882847
H      -0.882105    1.846056    0.669515
H      -0.984443   -2.700014   -1.057677
H       0.775012   -2.818806   -1.139183
H       1.489985   -2.171426    2.307837
H       2.066150   -1.525471    0.687121
H      -0.565013   -0.603197    2.098521
