19

C      -0.071701    1.455025    0.056946
C      -0.003250   -0.055013    0.151646
O       0.941556   -0.602117   -0.827139
C       1.790535   -1.066958    0.222294
C       0.814535   -0.620615    1.310774
C       1.083350   -2.078990    1.055450
C       0.208647   -3.266694    0.677490
C       1.092550   -4.019988    1.697224
O       1.818102   -2.809553    2.035519
H       0.916817    1.897098    0.211355
H      -0.436442    1.752938   -0.930719
H      -0.757094    1.854168    0.812967
H      -0.998527   -0.498309    0.012100
H       2.866221   -0.986854    0.109305
H       0.982573   -0.159052    2.275373
H      -0.842848   -3.178194    0.958327
H       0.283939   -3.590040   -0.361278
H       0.578553   -4.434589    2.570442
H       1.757507   -4.779858    1.271891
