16

C       0.001171    1.484283    0.065305
C       0.016010   -0.016049   -0.007264
C      -0.138595   -0.718156   -1.189090
N      -0.125249   -2.062389   -1.249919
C       0.056816   -2.722272   -0.119954
N       0.143626   -4.096521   -0.130152
C       0.206619   -2.001172    1.095992
O       0.364305   -2.722028    2.233791
N       0.185385   -0.696631    1.152766
H       0.945694    1.865978    0.468195
H      -0.153799    1.924785   -0.922832
H      -0.795652    1.836404    0.729382
H      -0.285357   -0.195720   -2.129990
H      -0.232792   -4.532914   -0.958219
H      -0.065457   -4.560855    0.739451
H       0.434722   -2.080066    2.954035
