21

O      -0.174982    1.447833    0.083617
C      -0.029794    0.041010    0.210771
C      -1.356535   -0.602177   -0.185473
C      -1.325956   -2.101323   -0.113647
C      -0.577646   -3.069172   -1.036480
C      -1.464524   -4.184308   -0.421974
C      -0.994437   -4.266023    1.056805
C      -1.578464   -2.863308    1.205538
C      -2.489365   -3.057440    0.013854
H       0.660915    1.859198    0.321074
H       0.774981   -0.337037   -0.440221
H       0.225359   -0.245416    1.243369
H      -2.142286   -0.209281    0.471522
H      -1.608046   -0.274710   -1.202259
H      -0.830856   -2.878667   -2.084251
H       0.509833   -3.177995   -0.936632
H      -1.698433   -5.085498   -0.984957
H      -1.573705   -4.998640    1.626275
H       0.076008   -4.422388    1.238828
H      -1.794710   -2.319452    2.117104
H      -3.553600   -2.919842   -0.114639
