20

C      -0.020903    1.596211    0.082229
C      -0.045753    0.064805    0.030997
C       0.793974   -0.568289    1.149372
N      -1.424248   -0.457229    0.034819
C      -2.344771   -0.003609    1.062624
C      -1.753307   -1.394185   -0.907923
O      -0.974401   -1.816107   -1.750108
C      -3.125059   -1.893385   -0.883479
C      -4.225895   -2.372479   -0.961188
H       1.005686    1.948216   -0.054746
H      -0.635942    2.027617   -0.713123
H      -0.374736    1.985225    1.042672
H       0.365165   -0.260464   -0.926052
H       0.424581   -0.296828    2.144377
H       0.790500   -1.658132    1.063432
H       1.830496   -0.224120    1.078809
H      -2.603623    1.053417    0.934097
H      -3.261400   -0.589592    1.015494
H      -1.907385   -0.130348    2.059218
H      -5.197093   -2.797932   -1.032361
