14

O       0.059991   -0.009126   -0.013946
C      -0.052975    1.197058    0.004864
C      -1.333010    1.907331    0.046441
C      -1.239937    3.248627    0.061463
C      -1.955760    4.590332    0.099145
C      -0.518798    5.236639    0.071229
N      -0.019209    3.854597    0.037428
N       1.175898    3.264369    0.001538
N       1.172377    1.992300   -0.014617
H      -2.260435    1.350706    0.063829
H      -2.573165    4.808818   -0.773273
H      -2.526569    4.782835    1.008654
H      -0.273098    5.812091   -0.823600
H      -0.225935    5.785693    0.968414
