16

O      -0.329880    0.643346    0.331050
C       0.573619    1.210493    0.879650
N       1.864079    1.392770    0.390407
C       2.395729    0.923849   -0.817488
O       1.788315    0.263254   -1.618615
C       3.847168    1.374415   -1.033382
C       4.773368    1.043248    0.116560
C       5.772526    2.000419    0.607262
O       4.557777    1.780392    1.332967
H       0.480977    1.679565    1.880645
H       2.509859    1.888097    0.994813
H       4.191772    0.891750   -1.950512
H       3.848404    2.458821   -1.197040
H       4.957435   -0.018108    0.281743
H       6.672290    1.640748    1.101961
H       5.860054    2.973230    0.126430
