14

C      -0.045392    1.397486    0.046514
N      -0.022415   -0.054543    0.042878
C       0.526830   -0.617994   -0.950199
N       1.147228   -0.127401   -2.101785
N       1.618216   -1.094270   -2.940116
C       1.307858   -2.208293   -2.340816
N       0.654694   -1.994464   -1.148311
C       1.603614   -3.499294   -2.848891
N       1.822951   -4.571946   -3.222560
H       0.964339    1.840272    0.038839
H      -0.597632    1.817593   -0.810331
H      -0.543715    1.746575    0.953824
H       1.269320    0.837084   -2.351867
H       0.312864   -2.683825   -0.501555
