19

C      -0.059635    1.444207   -0.054561
N       0.018305   -0.005063   -0.052588
C      -1.044101   -0.689229   -0.028321
O      -2.328365   -0.152639   -0.005448
C      -3.292645   -1.202974    0.041308
C      -4.268089   -1.058337   -1.126397
C      -2.464815   -2.471481    0.023925
N      -3.071602   -3.698648    0.133700
C      -1.162916   -2.139477   -0.021573
H       0.667978    1.843055    0.661609
H       0.229984    1.829107   -1.041538
H      -1.049728    1.846665    0.190169
H      -3.844202   -1.126216    0.990399
H      -3.740708   -1.158915   -2.079048
H      -5.059748   -1.814365   -1.077178
H      -4.743835   -0.075123   -1.091575
H      -4.009251   -3.773959   -0.230335
H      -2.501081   -4.501323   -0.085606
H      -0.304437   -2.793328   -0.041580
