21

C      -0.038181    1.561937    0.049892
C      -0.007062    0.061511   -0.025850
C      -0.030401   -0.613939   -1.179088
C       0.017017   -2.130236   -1.196584
C      -0.740023   -2.686149    0.013755
C       0.234740   -2.201010    1.101956
C       1.594067   -2.534296    0.437528
O       1.356688   -2.605662   -0.974659
C       0.053621   -0.683367    1.294971
H       0.857979    1.953148    0.548794
H      -0.100917    2.016211   -0.942440
H      -0.896415    1.909556    0.639997
H      -0.046650   -0.085085   -2.128360
H      -0.304367   -2.533341   -2.159272
H      -1.750760   -2.285786    0.123084
H      -0.786109   -3.778213   -0.031843
H       0.118081   -2.720818    2.056191
H       2.352519   -1.771213    0.657111
H       1.983602   -3.505377    0.766822
H       0.875920   -0.280162    1.903153
H      -0.861866   -0.480039    1.871494
