18

C       0.049422    1.466018   -0.011273
C       0.008096   -0.028545   -0.080526
N       0.669156   -0.856184   -1.148111
C       0.038915   -1.890869   -0.265497
C       0.371538   -1.085501    1.014088
O      -0.973290   -1.156535    1.572682
C      -1.202738   -1.020912    0.129403
C      -2.627822   -1.047213   -0.327137
O      -3.255136   -2.262972    0.037751
H       1.084522    1.820820   -0.005267
H      -0.460811    1.920202   -0.867516
H      -0.444255    1.808218    0.903671
H       0.152385   -0.779237   -2.028335
H       0.103153   -2.964264   -0.439116
H       1.226998   -1.141159    1.685176
H      -3.156808   -0.174447    0.088465
H      -2.671983   -0.974215   -1.419753
H      -3.048504   -2.408226    0.968791
