23

C      -0.070206    1.510426    0.040264
C       0.030607   -0.023097    0.036553
C      -1.394421   -0.587110   -0.067639
C       0.987383   -0.578113   -1.093825
C       2.041202   -1.302543   -0.233575
C       1.156065   -2.038581    0.813457
C       0.815553   -0.580356    1.256498
C       2.300497   -0.242077    0.881209
O       3.294380   -0.520981    1.838159
H       0.903275    2.001980    0.106058
H      -0.554355    1.864611   -0.876785
H      -0.675249    1.857387    0.885912
H      -1.873436   -0.243791   -0.991782
H      -1.417967   -1.679453   -0.074970
H      -2.012525   -0.245331    0.770676
H       0.467053   -1.258618   -1.774989
H       1.425623    0.225453   -1.694424
H       2.865968   -1.796133   -0.749852
H       0.353288   -2.684240    0.452018
H       1.729069   -2.597837    1.558347
H       0.418550   -0.352140    2.247768
H       2.517204    0.774179    0.546766
H       3.160915   -1.407811    2.186439
