15

O      -0.367096    0.588884    0.810052
C       0.252747    0.870535   -0.182842
C       1.431668    1.783044   -0.198461
N       2.315355    1.629510   -1.375978
C       1.539918    2.832418   -1.255757
C       0.532659    3.416632   -2.267683
N       1.110197    4.725871   -1.923461
C       2.057005    4.257592   -1.042871
O       2.936279    4.765669   -0.401867
H      -0.011004    0.468350   -1.186351
H       1.861044    2.025005    0.770442
H       3.284188    1.805632   -1.114802
H       0.706129    3.103551   -3.301188
H      -0.525408    3.312080   -2.010614
H       0.916087    5.654570   -2.264010
