19

O      -0.167910    1.521011    0.016891
C      -0.017758    0.125992    0.034327
C       0.118102   -0.624304    1.384945
C      -1.151906   -0.020371    2.078592
O      -2.147609   -0.040464    1.000894
C      -1.364058   -0.684455    0.019607
C      -1.680440   -1.514028   -1.220506
C      -0.459375   -2.416421   -0.769941
C      -0.588059   -1.824561    0.688468
H       0.707754    1.916837   -0.023214
H       0.699983   -0.209183   -0.716948
H       1.027082   -0.656002    1.990388
H      -1.513676   -0.621029    2.919682
H      -0.989078    1.012858    2.392328
H      -2.624273   -2.058222   -1.130439
H      -1.636175   -1.020598   -2.194604
H      -0.643088   -3.490860   -0.809062
H       0.467143   -2.209515   -1.306948
H      -1.147070   -2.494797    1.343428
