20

O       0.053948    1.413764   -0.071791
C      -0.004693   -0.007755   -0.016265
C       0.716650   -0.548731    1.227327
C      -0.097905   -0.303670    2.475055
C      -1.414510   -0.088776    2.454326
C      -2.241729   -0.074212    1.193683
C      -1.443912   -0.503792   -0.027172
C      -2.116152   -0.736131   -1.322811
N      -1.691323   -1.883722   -0.491411
H      -0.166288    1.742959    0.807349
H       0.503539   -0.352992   -0.924916
H       0.910175   -1.624429    1.109796
H       1.698258   -0.067000    1.304453
H       0.432582   -0.309963    3.423824
H      -1.946036    0.091829    3.385728
H      -3.105066   -0.740654    1.301666
H      -2.653286    0.933655    1.034991
H      -3.192840   -0.611913   -1.405673
H      -1.564889   -0.513922   -2.233063
H      -0.835053   -2.281149   -0.874765
