18

C       0.085028    1.612459    0.325903
C       1.243207    0.729772   -0.052148
C       2.125413    0.197063    1.074951
C       1.139113   -0.357159    2.127980
C      -0.107359   -0.737646    1.327432
C      -0.697895   -2.081771    1.349225
O      -1.313121   -0.995840    2.051354
C      -0.141740    0.133401    0.104056
H       0.018946    2.011077    1.332946
H      -0.298553    2.280200   -0.437439
H       1.683963    0.855586   -1.034738
H       2.755720   -0.610336    0.685088
H       2.795288    0.957511    1.490133
H       1.545435   -1.197979    2.694517
H       0.864551    0.413659    2.855871
H      -1.248650   -2.449661    0.483249
H      -0.257736   -2.856687    1.977012
H      -0.734756   -0.186101   -0.744784
