13

C       0.276263    1.513558    0.543658
C       0.091329    0.080387    0.008176
O       0.589511   -0.881570    0.893895
C      -1.397149   -0.166015   -0.238741
O      -1.981884   -1.058916    0.321164
C       0.800028   -0.063104   -1.351240
O       0.701023    0.733967   -2.245527
H       1.327912    1.662627    0.800193
H      -0.007604    2.243289   -0.217972
H      -0.324535    1.664100    1.444317
H      -0.167602   -1.439043    1.138206
H      -1.891089    0.522905   -0.948845
H       1.406976   -0.990786   -1.420837
