15

O      -0.049471    1.332205    0.094344
C       0.067869   -0.032048    0.071183
C       0.793191   -0.976052    1.054885
C       0.104419   -1.952216    0.067519
C       0.113809   -3.377696    0.060128
C       0.128208   -4.580639    0.062609
C      -1.139463   -0.996290   -0.114657
O      -1.082712   -1.005263   -1.564590
C       0.311085   -0.988441   -1.161825
H       0.830041    1.724509    0.064288
H       1.886649   -0.971469    1.035272
H       0.421279   -0.992602    2.082285
H       0.136824   -5.642432    0.059335
H      -2.107086   -1.026476    0.384417
H       1.087865   -1.008647   -1.925859
