16

C       0.028804    1.402430    0.062653
O      -0.087029   -0.001157   -0.039343
C       0.626851   -0.564180   -1.130544
C       2.130676   -0.712664   -0.836417
C       0.030757   -1.862150   -1.439822
C      -0.422194   -2.944341   -1.725917
C      -0.999290   -4.228281   -2.027568
O      -0.662646   -4.931440   -2.952726
H       1.051245    1.728217    0.301029
H      -0.288644    1.903246   -0.864989
H      -0.631902    1.713534    0.874700
H       0.502691    0.078733   -2.019533
H       2.579403    0.266116   -0.648870
H       2.276529   -1.343957    0.043153
H       2.641656   -1.167986   -1.688590
H      -1.801858   -4.536262   -1.326988
