22

C       0.154354    1.409729    0.121233
C      -0.065214   -0.100665   -0.057233
C      -1.551138   -0.444504   -0.064532
C       0.701023   -0.650827   -1.279478
C       2.099685   -0.846858   -0.719334
C       3.240605   -1.368869   -1.499780
N       3.215695    0.047227   -1.077041
C       1.885781   -1.121861    0.768996
O       0.523524   -0.811185    1.048774
H       1.220287    1.655984    0.121954
H      -0.328023    1.975545   -0.683172
H      -0.270875    1.736180    1.074540
H      -2.058429    0.039603   -0.905133
H      -1.691966   -1.525939   -0.145435
H      -2.025122   -0.106376    0.861636
H       0.269052   -1.612236   -1.580358
H       0.677057    0.018266   -2.144747
H       4.002210   -1.975049   -1.015116
H       3.080926   -1.605416   -2.549331
H       2.954919    0.632765   -1.867562
H       2.051006   -2.175987    1.024965
H       2.570859   -0.507568    1.367001
