22

C      -0.249915    1.516958    0.260677
C      -0.049555    0.018466    0.009636
C       0.808052   -0.622428    1.087371
O       0.188692   -0.558595    2.395089
C       0.486455   -1.949210    2.660223
C      -0.705201   -2.698955    3.222118
C       0.956912   -2.167104    1.192734
C       0.102930   -3.042285    0.281945
H       0.706017    2.052282    0.246401
H      -0.895933    1.963896   -0.500794
H      -0.709834    1.679799    1.239376
H      -1.023289   -0.481601   -0.027484
H       0.432289   -0.142339   -0.963927
H       1.787640   -0.118043    1.111289
H       1.326736   -2.025843    3.367209
H      -1.567013   -2.649446    2.551814
H      -0.453981   -3.750924    3.396269
H      -0.997746   -2.258267    4.180609
H       1.997509   -2.496857    1.127990
H      -0.953766   -2.763070    0.297679
H       0.447249   -2.973318   -0.755268
H       0.172162   -4.093406    0.581490
