18

C      -0.024622    1.472623   -0.255451
C       0.070156   -0.006805    0.013904
O       1.377895   -0.578440    0.106944
C       0.558796   -0.553268    1.288494
C       1.032857    0.196926    2.522973
N       1.331572   -0.836259    3.542516
C       0.387896   -1.935629    3.290736
C       0.084213   -1.911588    1.787873
O      -0.415835   -2.775875    1.117235
H       0.698070    2.035283    0.340205
H       0.169462    1.677252   -1.313227
H      -1.031047    1.836990   -0.023778
H      -0.631119   -0.638651   -0.533700
H       1.912605    0.810621    2.324123
H       0.237948    0.851461    2.904946
H       2.272337   -1.180318    3.375950
H       0.780035   -2.903788    3.608731
H      -0.549595   -1.764568    3.840513
