20

N      -0.054300    1.481271    0.099320
C       0.035124    0.035549   -0.069678
C       0.802553   -0.546375    1.130612
C       0.717625   -2.027668    1.142681
N       0.712675   -3.184146    1.148466
N       2.171401   -0.061594    1.143890
C       3.181111   -0.597156    0.195785
C       4.243314   -0.454663    1.312917
C       3.051385   -0.362943    2.295946
H       0.886493    1.855006    0.183561
H      -0.477994    1.904847   -0.719304
H      -0.973525   -0.390548   -0.083551
H       0.537360   -0.298552   -0.994057
H       0.315699   -0.176127    2.040859
H       3.003261   -1.647350   -0.076666
H       3.309541   -0.006523   -0.716210
H       4.931340   -1.288698    1.447315
H       4.806172    0.477555    1.244120
H       3.069082    0.413789    3.066690
H       2.829530   -1.332703    2.765210
