20

O      -0.082129    1.408201    0.044478
C      -0.033128   -0.009253   -0.027434
C      -1.441521   -0.527326   -0.006045
C      -2.528548   -0.300826    1.098614
C      -3.223118   -1.191552    0.022391
C      -2.572789   -0.267444   -1.051837
C      -1.913967   -1.995530   -0.019476
C      -1.451441   -3.207711   -0.705587
N      -1.536948   -3.134829    0.788320
H       0.820146    1.740719    0.031694
H       0.468023   -0.347367   -0.949901
H       0.527199   -0.432759    0.823913
H      -2.344133   -0.763771    2.070785
H      -2.898639    0.722155    1.194493
H      -4.240814   -1.579349    0.038287
H      -2.947113    0.757280   -1.093971
H      -2.426405   -0.691728   -2.048735
H      -2.156980   -3.897308   -1.161650
H      -0.464885   -3.207588   -1.163810
H      -0.605314   -3.016418    1.180965
