16

C      -0.048967    1.482569   -0.119697
C       0.015686   -0.032426   -0.027252
O       0.979506   -0.683082   -0.377799
N      -1.086073   -0.626869    0.567066
C      -2.519297   -0.395788    0.231335
C      -2.553996   -1.521702   -0.865940
O      -3.686362   -2.212159   -0.275392
C      -2.932932   -1.753450    0.880079
C      -1.534950   -2.001779    0.230532
H       0.961635    1.871410   -0.245167
H      -0.642858    1.777832   -0.992604
H      -0.513604    1.923264    0.766090
H      -3.015078    0.572705    0.266191
H      -2.467229   -1.470320   -1.951015
H      -3.296546   -1.973147    1.882128
H      -0.889140   -2.874825    0.254677
