16

C       0.024003    1.439087    0.113066
N      -0.129372    0.014600   -0.100469
C       0.551642   -0.641743   -1.104948
C       1.178157   -0.010603   -2.191105
N       1.796141   -0.656874   -3.182985
C       1.833205   -1.986910   -3.141906
C       1.261011   -2.732471   -2.108872
C       0.626152   -2.041999   -1.101860
F       0.062230   -2.692968   -0.071443
H       1.071771    1.747528    0.250075
H      -0.386311    2.003862   -0.731331
H      -0.540010    1.721945    1.004003
H      -0.282359   -0.542621    0.724433
H       1.172938    1.073260   -2.256286
H       2.341886   -2.488732   -3.959961
H       1.306107   -3.814590   -2.083803
