23

C       0.804210   -0.672179   -1.403013
C       0.116250   -0.123888   -0.148588
C      -1.380230   -0.460356   -0.012755
C      -2.185527   -0.007515   -1.237912
O      -1.923848    1.369876   -1.472530
C      -1.670675   -1.969763    0.248223
C      -2.557455   -1.971672    1.515329
O      -3.056727   -0.649061    1.646476
C      -1.991078    0.196989    1.248649
H       1.877489   -0.459686   -1.374880
H       0.685875   -1.757661   -1.493673
H       0.403606   -0.210698   -2.310308
H       0.629451   -0.504305    0.744008
H       0.229380    0.965511   -0.131400
H      -1.910186   -0.615279   -2.113422
H      -3.252930   -0.181546   -1.034174
H      -2.507388    1.674017   -2.173147
H      -2.192464   -2.424423   -0.599674
H      -0.750036   -2.538943    0.402162
H      -3.411656   -2.651261    1.457765
H      -1.962270   -2.243822    2.402254
H      -1.233610    0.270686    2.047496
H      -2.393137    1.192910    1.052337
