25

C      -0.197383    1.496281   -1.028857
C      -0.053140    0.287839   -0.097780
C      -1.418868   -0.314390    0.252100
C       0.865235   -0.796887   -0.713955
C       2.236766   -0.353871   -0.944056
C       3.368285    0.025027   -1.116507
C       4.738378    0.493754   -1.332376
C       4.924751    1.032071   -2.764845
C       5.136007    1.550541   -0.282532
H       0.779660    1.917134   -1.281624
H      -0.693023    1.209743   -1.964742
H      -0.799624    2.282302   -0.561757
H       0.424358    0.625676    0.831209
H      -1.926588   -0.684277   -0.647046
H      -1.322034   -1.153673    0.949212
H      -2.070920    0.432951    0.715414
H       0.873328   -1.673976   -0.053127
H       0.423023   -1.138068   -1.661249
H       5.412058   -0.366337   -1.209673
H       4.281620    1.901113   -2.935831
H       5.964015    1.337343   -2.925122
H       4.668925    0.271501   -3.507207
H       5.029364    1.156733    0.731644
H       6.176596    1.858900   -0.427338
H       4.500102    2.437139   -0.369601
