17

C      -0.188994    1.505893    0.205422
C       0.066131    0.025543   -0.019742
C      -1.171675   -0.917575    0.150444
C      -0.437588   -1.624095    1.312740
O      -0.763853   -2.456902    2.102544
C       0.852474   -0.801468    1.080073
N       1.889206   -1.568757    0.376452
C       1.798072   -1.230935   -0.856316
N       0.899875   -0.238530   -1.193856
H       0.753934    2.058437    0.241255
H      -0.802681    1.930659   -0.597337
H      -0.721707    1.668185    1.147936
H      -2.106818   -0.431845    0.445603
H      -1.375103   -1.575009   -0.700875
H       1.256023   -0.281471    1.954378
H       2.432609   -1.653320   -1.630688
H       0.510124   -0.193613   -2.123271
