16

C      -0.033334    1.556877   -0.093392
O       1.312424    2.009010    0.082116
C       2.058141    0.993766    0.745385
C       1.814296    1.034188    2.260332
O       0.543458    0.398320    2.451244
C       0.364622   -0.518640    1.398180
C      -0.005427    0.040433    0.039039
C       1.422400   -0.350977    0.352129
H      -0.687410    2.014341    0.660462
H      -0.371133    1.868663   -1.087392
H       3.109176    1.108920    0.472552
H       2.600847    0.483131    2.798630
H       1.752770    2.054227    2.646546
H      -0.016582   -1.483349    1.715156
H      -0.618167   -0.561014   -0.622617
H       1.975285   -1.145715   -0.129917
