23

C       0.083179    1.608914   -0.024594
C      -0.031586    0.078670   -0.019122
C       0.579571   -0.525073   -1.285980
O      -0.113862    0.007304   -2.408604
C       0.612447   -0.523746    1.228104
C      -0.021690   -0.114283    2.576719
C       0.121888   -1.383219    3.456759
C       0.764424   -2.410214    2.498232
O       0.488755   -1.944119    1.188852
H       1.132983    1.922717    0.032192
H      -0.336795    2.011521   -0.948085
H      -0.446867    2.057878    0.820540
H      -1.093833   -0.200145   -0.009307
H       1.653609   -0.273414   -1.329415
H       0.494144   -1.617743   -1.244601
H       0.235836   -0.410825   -3.200136
H       1.687127   -0.260471    1.240911
H       0.471384    0.758065    3.011338
H      -1.075855    0.140117    2.432138
H       0.742513   -1.214570    4.340319
H      -0.854639   -1.728974    3.804110
H       1.853157   -2.464574    2.663654
H       0.354950   -3.419515    2.590148
