17

O      -0.107218    1.418206   -0.138949
C       0.017310    0.007846   -0.040692
C      -1.389776   -0.577090   -0.043923
C      -1.420850   -2.089439    0.113292
C      -2.837259   -2.724083    0.034835
N      -2.802201   -3.614499   -1.138615
C      -1.628477   -3.520679   -1.603164
O      -0.718581   -2.716259   -1.004507
H       0.775130    1.793609   -0.208981
H       0.589486   -0.408644   -0.881769
H       0.536958   -0.283867    0.887638
H      -1.960638   -0.129450    0.778982
H      -1.896790   -0.296776   -0.974628
H      -0.884663   -2.391116    1.019782
H      -3.089816   -3.300728    0.930214
H      -3.617994   -1.966331   -0.097275
H      -1.254424   -4.045229   -2.475737
