20

C      -0.008479    1.538904    0.024101
C       0.015952    0.009775   -0.006689
C       0.736400   -0.522258   -1.250705
O       0.723153   -1.937487   -1.302896
C       1.418988   -2.545315   -0.225589
C       0.888429   -2.069007    1.108462
C       0.693003   -0.582069    1.245425
N       0.592765   -2.803872    2.108896
O       0.859626   -4.165064    1.876605
H       1.007521    1.950763    0.043168
H      -0.517982    1.946385   -0.855427
H      -0.530861    1.906160    0.913184
H      -1.014649   -0.366176   -0.048419
H       0.241128   -0.182194   -2.165474
H       1.775824   -0.145661   -1.269336
H       1.290211   -3.621521   -0.331880
H       2.498312   -2.316272   -0.288199
H       1.681786   -0.109328    1.356490
H       0.128349   -0.366728    2.156609
H       0.532724   -4.572824    2.685108
