20

C      -0.055369    1.532996    0.038327
C       0.003046    0.018715    0.014830
C       1.022657   -0.703172   -0.928091
C       1.058128   -1.825311    0.139124
C       0.693288   -0.748755    1.191419
C      -0.139862   -2.737525   -0.066666
O      -1.361766   -1.997979   -0.240385
C      -1.345999   -0.629273   -0.208762
N      -2.409286    0.040732   -0.359759
H       0.946458    1.943943    0.202645
H      -0.445845    1.924614   -0.904420
H      -0.715622    1.887222    0.834070
H       0.698576   -0.958902   -1.940897
H       1.963570   -0.149181   -0.972303
H       1.969076   -2.414681    0.268001
H       1.572829   -0.203264    1.542164
H       0.078936   -1.044654    2.046531
H      -0.011739   -3.361827   -0.959575
H      -0.284379   -3.399829    0.795837
H      -3.203164   -0.588805   -0.496657
