23

C       0.029630    1.586010   -0.040040
C      -0.026034    0.060312    0.074506
C      -1.440261   -0.507736   -0.097402
C      -1.497323   -2.028038    0.020750
C      -1.264860   -2.699050    1.425223
C      -2.621479   -3.400396    1.279497
O      -2.849241   -4.726274    1.609168
C      -3.729734   -2.399670    1.131790
C      -2.860136   -2.735481   -0.065781
H       1.050811    1.960509    0.083068
H      -0.333013    1.923238   -1.017611
H      -0.594202    2.063411    0.724029
H       0.636465   -0.388396   -0.677768
H       0.373281   -0.248079    1.049654
H      -2.107276   -0.048299    0.644266
H      -1.832875   -0.211556   -1.080385
H      -0.806689   -2.468338   -0.706852
H      -0.431077   -3.404152    1.418829
H      -1.156682   -2.026385    2.284023
H      -3.168935   -4.760568    2.517432
H      -4.719902   -2.842749    1.087529
H      -3.692382   -1.424979    1.613043
H      -3.295879   -3.150235   -0.966969
