13

C       0.025442    1.433101    0.143600
N      -0.040615    0.032803   -0.238345
C      -1.215353   -0.667122   -0.082759
N      -1.198939   -1.975195    0.093418
O      -2.546148   -2.360544    0.136919
C      -3.309298   -1.273155    0.004214
C      -2.552544   -0.157947   -0.137125
H       1.029830    1.806614   -0.067844
H      -0.674538    2.020448   -0.458607
H      -0.198174    1.614873    1.205638
H       0.768359   -0.516642    0.014755
H      -4.375797   -1.439545    0.027207
H      -2.884704    0.857467   -0.266972
