18

C      -1.893357    0.494166   -0.527479
N      -0.756858   -0.423862   -0.482587
C       0.392069   -0.283077   -1.339362
C       0.587536    0.818254   -2.367404
C      -0.179314    0.539136   -3.646355
O       0.310042    0.538334   -4.745331
C       0.507493   -0.033554    0.160353
C       0.782213    1.331857    0.676814
O       0.326806    2.369680    0.246274
H      -1.638919    1.547072   -0.679595
H      -2.563030    0.157036   -1.324395
H      -2.432339    0.407780    0.420508
H       0.798325   -1.243675   -1.658030
H       0.253322    1.779728   -1.963162
H       1.647858    0.908435   -2.621999
H      -1.264994    0.335345   -3.503466
H       0.952596   -0.819243    0.768261
H       1.475659    1.340179    1.546167
