16

C       0.001070    1.508522    0.037597
C       0.003741   -0.000533   -0.000371
C      -0.069520   -0.691740   -1.210420
C      -0.045346   -2.085927   -1.226982
C       0.049679   -2.811854   -0.047517
C       0.120919   -2.126753    1.167155
O       0.210286   -2.872991    2.305648
C       0.096923   -0.733227    1.186780
H       0.998937    1.902616    0.265388
H      -0.307384    1.929345   -0.922887
H      -0.677672    1.889746    0.807742
H      -0.146222   -0.138737   -2.140836
H      -0.104313   -2.613835   -2.173441
H       0.067025   -3.895375   -0.043122
H       0.251484   -2.282123    3.064678
H       0.150582   -0.210107    2.139787
