17

C       0.050343    1.548802   -0.072263
C       0.000638    0.051032    0.246345
C      -1.388503   -0.538594    0.042047
N      -1.772448   -0.887479   -1.328861
C      -1.642301   -1.981251   -0.357902
C      -0.514518   -2.939724   -0.583555
O      -0.477950   -4.033583   -0.083336
C      -2.419645    0.027981    0.890952
N      -3.239254    0.499010    1.557689
H       1.062759    1.935184    0.071564
H      -0.240080    1.732495   -1.110964
H      -0.622403    2.117464    0.576897
H       0.697125   -0.488074   -0.400275
H       0.309760   -0.132605    1.281331
H      -2.750787   -0.680555   -1.512835
H      -2.534836   -2.441485    0.057715
H       0.279780   -2.570314   -1.265247
