18

C       0.107846    1.589143    0.102843
C      -0.052603    0.066529   -0.055012
C       0.687973   -0.490185   -1.234644
C       0.200809   -0.893000   -2.436704
O       1.186825   -1.319561   -3.244416
N       2.391525   -1.206365   -2.567618
C       2.096456   -0.719537   -1.384361
C       3.206840   -0.454739   -0.408772
O       3.451991    0.936033   -0.222847
H       1.164051    1.851281    0.201627
H      -0.294728    2.113908   -0.769507
H      -0.426804    1.943020    0.989652
H       0.298746   -0.428024    0.859145
H      -1.114174   -0.187658   -0.148507
H      -0.795866   -0.941105   -2.848788
H       2.942827   -0.840249    0.580786
H       4.106176   -0.982524   -0.750529
H       3.695231    1.300640   -1.080866
