18

N      -0.441242   -1.159654   -0.189090
C      -0.260030   -0.022624   -0.093361
C      -0.031106    1.424104   -0.013596
C      -0.655185    2.003647    1.275922
O      -0.253747    1.338724    2.443139
C       1.000467    1.715596    2.980588
C       2.227518    1.307240    2.201287
C       2.416122    1.317201    0.882261
C       1.464374    1.766416   -0.198853
H      -0.573101    1.877368   -0.854854
H      -0.419780    3.079821    1.323390
H      -1.742913    1.896086    1.223306
H       1.019932    2.808861    3.146792
H       1.032451    1.247192    3.968559
H       3.063395    0.997818    2.825530
H       3.392254    1.005753    0.518079
H       1.792055    1.352675   -1.157378
H       1.533200    2.858984   -0.307093
