21

C       0.061769    1.381623   -0.279117
C       0.085362   -0.102708    0.075662
O       0.598053   -0.343722    1.383878
C      -1.298147   -0.735213   -0.041280
O      -1.904419   -0.598139   -1.358433
C      -2.198835   -2.009800   -1.384612
C      -3.522745   -2.421297   -1.938389
C      -0.920895   -2.786915   -1.398330
C      -1.461714   -2.250349   -0.082954
H       1.064107    1.810457   -0.196349
H      -0.307019    1.524215   -1.298404
H      -0.605263    1.931634    0.397827
H       0.773502   -0.625935   -0.596614
H       0.112145    0.219946    1.996423
H      -1.962375   -0.281978    0.711817
H      -3.585983   -2.173193   -3.004159
H      -3.662013   -3.501263   -1.835078
H      -4.342093   -1.910754   -1.422570
H      -1.028226   -3.861613   -1.510517
H      -0.031615   -2.367450   -1.859873
H      -1.699844   -2.886002    0.758506
