17

O      -0.485613    0.508679   -0.590917
C       0.111451    1.014873    0.326994
C       1.266940    1.962136    0.169186
C       1.411232    2.891072   -1.061471
C       0.063541    3.460658   -1.526112
C      -0.685494    3.995518   -0.323365
C      -0.109919    3.931469    0.878906
C       1.281436    3.329546    0.914724
O       2.054392    3.873793   -0.195611
H      -0.158557    0.781294    1.383114
H       2.203130    1.422108    0.351460
H       2.057103    2.578570   -1.884422
H       0.237138    4.261971   -2.255476
H      -0.520009    2.682423   -2.031151
H      -1.673410    4.421296   -0.471133
H      -0.583691    4.284789    1.788081
H       1.800941    3.424881    1.869505
