23

C       0.015342    1.576995   -0.088473
C      -0.027075    0.050000   -0.180478
C      -1.405084   -0.535632    0.169024
C      -1.429148   -2.039143    0.129188
C      -1.603915   -2.827243   -1.143631
C      -2.587906   -3.037335   -0.027815
C      -1.971535   -3.975214    1.013796
C      -0.810502   -2.936345    1.199098
O       0.517379   -3.330804    0.916374
H       1.005592    1.965813   -0.346043
H      -0.709816    2.036140   -0.770241
H      -0.223503    1.921184    0.924380
H       0.247313   -0.270246   -1.193187
H       0.726878   -0.387151    0.485143
H      -1.701912   -0.189114    1.169684
H      -2.157749   -0.138928   -0.525920
H      -1.966399   -2.243976   -1.984813
H      -0.901551   -3.612081   -1.410860
H      -3.644252   -2.823535   -0.138829
H      -2.570620   -4.104922    1.918337
H      -1.664749   -4.958469    0.641415
H      -0.872803   -2.459415    2.187904
H       0.820265   -3.903259    1.628616
