18

C      -0.050263    1.504200    0.476199
N      -0.258602    0.062882    0.447056
C       0.609851   -0.690587    0.934193
C       0.758234   -2.186527    1.085839
C       2.126499   -1.825375    1.729354
O       1.826623   -0.394510    1.536713
C       2.345466   -2.183459    3.113124
C       2.527388   -2.496086    4.261678
C       2.748443   -2.864869    5.651250
H       0.897083    1.812143    0.933639
H      -0.089020    1.891629   -0.547868
H      -0.874036    1.973208    1.025543
H       0.042689   -2.651950    1.764139
H       0.808189   -2.749195    0.152678
H       2.988788   -2.091870    1.110360
H       2.656194   -1.990821    6.304997
H       2.017945   -3.609028    5.986457
H       3.748766   -3.286257    5.797310
