21

C       0.286029    0.950876   -0.385153
O      -0.402967   -0.088311    0.294308
C       0.383001   -0.673310    1.300830
C       0.006344   -1.979263    1.899943
C      -0.607309   -2.911492    0.853785
C       0.701122   -2.792070   -0.009103
C       1.474165   -4.094618   -0.129878
O       0.549476   -2.281045   -1.317339
C       1.298465   -1.833172    1.046118
H       1.174052    0.567655   -0.905921
H      -0.408917    1.374226   -1.114038
H       0.597600    1.742338    0.311212
H       0.772025    0.059161    2.010285
H      -0.088253   -2.099492    2.972448
H      -0.773246   -3.926053    1.222916
H      -1.522227   -2.552773    0.374834
H       0.917233   -4.804465   -0.748790
H       2.443195   -3.913261   -0.605724
H       1.647044   -4.541562    0.853136
H      -0.032710   -1.516307   -1.233230
H       2.338431   -1.826751    1.355953
