25

C      -0.171789    1.375949    0.051106
O      -0.137552   -0.025651   -0.045775
C       0.719740   -0.485581   -1.069953
C       0.700590   -2.009230   -1.057309
C       1.436005   -2.673402   -2.234552
C       2.924613   -2.290886   -2.280426
C       1.227524   -4.206811   -2.174202
C       1.655928   -4.945234   -3.443535
O       1.834790   -4.779243   -1.016306
H       0.821421    1.797053    0.277542
H      -0.534208    1.843775   -0.878933
H      -0.856094    1.633231    0.863597
H       0.380999   -0.103138   -2.050543
H       1.738016   -0.094096   -0.909340
H       1.122645   -2.371988   -0.114039
H      -0.350816   -2.321417   -1.066830
H       0.966484   -2.331411   -3.168769
H       3.449676   -2.785333   -3.103612
H       3.057272   -1.214960   -2.421023
H       3.426836   -2.559679   -1.343894
H       0.154724   -4.382689   -2.025768
H       2.731197   -4.842280   -3.630197
H       1.434345   -6.011462   -3.345286
H       1.127886   -4.561221   -4.322448
H       2.785585   -4.805676   -1.166238
