23

C       0.426833    1.494662   -0.682968
O      -0.231035    0.273498   -0.440226
C       0.461975   -0.837590   -0.950607
C       1.695917   -1.362126   -0.157760
C       1.101252   -2.799969   -0.250757
C      -0.257335   -2.176327   -0.699711
C       1.784388   -3.712791   -1.265766
C       1.086708   -5.066637   -1.404938
O       1.816545   -3.019590   -2.514190
H       1.416212    1.535591   -0.201784
H       0.564365    1.675588   -1.761127
H      -0.196377    2.291257   -0.268391
H       0.703731   -0.690834   -2.011472
H       2.682683   -1.209160   -0.600398
H       1.689277   -0.981393    0.867419
H       1.063541   -3.336152    0.701525
H      -0.959039   -2.080369    0.132356
H      -0.765809   -2.629491   -1.552570
H       2.817107   -3.883644   -0.914710
H       0.048782   -4.937804   -1.726337
H       1.596713   -5.692961   -2.146510
H       1.091971   -5.610534   -0.454711
H       2.225489   -3.595354   -3.167074
