14

O      -0.134707    1.353167    0.055447
C      -0.011864   -0.005992    0.041320
C       0.927368   -0.996847    0.818747
C       0.810229   -1.992218   -0.326490
C      -0.187454   -2.037484    0.821826
C      -1.113679   -1.034437    0.044428
O      -2.461115   -0.818319    0.062032
C      -0.102613   -1.016719   -1.120685
H       0.586389    1.733136   -0.460245
H       1.719041   -0.851132    1.542900
H       1.513531   -2.746633   -0.656419
H      -0.385113   -2.815272    1.548706
H      -2.891349   -1.512992   -0.450434
H      -0.270175   -0.840383   -2.174998
