20

C       0.043557    1.496152    0.157753
C       0.047354    0.002136   -0.155187
N      -1.279723   -0.580897    0.019285
C      -1.464998   -1.979630   -0.237986
C      -1.137508   -2.911927    1.018707
C      -0.367876   -2.301935    2.123517
C      -0.874306   -1.092072    2.416540
C      -1.935247   -0.763477    1.398470
C      -2.432278   -2.151423    0.879488
H       1.024426    1.936522   -0.044994
H      -0.704573    2.016691   -0.447203
H      -0.189642    1.677968    1.212437
H       0.308342   -0.156058   -1.209876
H       0.820905   -0.510643    0.438022
H      -1.427566   -2.390014   -1.241347
H      -1.110654   -3.974776    0.809625
H       0.510273   -2.755199    2.567798
H      -0.463896   -0.376420    3.117992
H      -2.648405    0.026301    1.631617
H      -3.434672   -2.558342    0.906837
