18

C      -0.242233    1.477555    0.036556
C       0.026218   -0.016876   -0.045843
O      -1.274911   -0.704596   -0.019689
C      -1.171617   -1.626650    0.959316
N      -0.120059   -1.706280    1.665008
C       0.790932   -0.666023    1.158343
C       2.100760   -1.254246    0.576387
C       1.923497   -1.114482   -0.914333
C       0.816683   -0.455845   -1.251387
H       0.703194    2.028439    0.051919
H      -0.822885    1.818177   -0.826029
H      -0.802122    1.718656    0.945098
H      -2.047144   -2.257167    1.075691
H       0.997686    0.045843    1.963860
H       2.985366   -0.706312    0.925696
H       2.230559   -2.294884    0.890706
H       2.647347   -1.507676   -1.620446
H       0.487646   -0.234078   -2.260260
