14

O      -0.120994   -0.052567   -0.100074
C      -0.064374    1.157708   -0.021579
C       1.174309    1.916522   -0.001453
C       1.183065    3.259030    0.080642
N       2.370607    3.945454    0.066218
C       3.576851    3.376725   -0.366238
O       4.552538    4.045397   -0.567426
O       3.547446    2.054972   -0.591987
C       2.499683    1.215766   -0.048114
H      -0.986765    1.777892    0.045849
H       0.278834    3.854650    0.151667
H       2.390662    4.951904    0.113814
H       2.815773    0.883647    0.949609
H       2.456234    0.336904   -0.693092
