20

C       0.092440    1.492473   -0.001034
C       0.037320   -0.018947    0.000546
O       0.657054   -0.485572   -1.181258
C       0.636960   -1.903130   -1.254809
C       1.280183   -2.506972   -0.023135
C       1.802296   -3.890908   -0.067202
N       2.729829   -2.746423    0.010654
C       0.691045   -1.906328    1.236735
O       0.695903   -0.486322    1.153294
H       1.135570    1.817118   -0.015632
H      -0.416346    1.884073   -0.884632
H      -0.389724    1.883668    0.897451
H      -1.009105   -0.387476    0.013639
H      -0.404359   -2.259541   -1.343502
H       1.171843   -2.185254   -2.167623
H       1.771092   -4.517270    0.820817
H       1.715958   -4.437913   -1.003907
H       3.140305   -2.562763   -0.902352
H      -0.340627   -2.271725    1.380159
H       1.288790   -2.176059    2.109513
