18

O      -0.044890    1.371010    0.071355
C       0.009132   -0.039257    0.008184
C      -1.425190   -0.613802   -0.120233
C      -1.288834   -0.401453   -1.660393
C       0.231737   -0.614865   -1.423830
O       0.594511   -1.985089   -1.319591
C      -0.461239   -2.818880   -0.841931
C      -1.360738   -2.116627    0.198451
H       0.843651    1.709411   -0.081437
H       0.651538   -0.465874    0.791584
H      -2.215870   -0.093220    0.423715
H      -1.814090   -1.071369   -2.344229
H      -1.485660    0.635164   -1.932965
H       0.962076   -0.137031   -2.082826
H      -1.076293   -3.147654   -1.691293
H       0.017896   -3.710009   -0.427124
H      -0.973121   -2.258899    1.214052
H      -2.358971   -2.567723    0.166482
