16

C      -0.038792   -1.177048    0.391882
C      -0.017001   -0.008056    0.115051
C       0.026434    1.416489   -0.215648
C       1.413583    1.998154   -0.143807
C       2.092842    2.628323   -1.096366
C       3.430863    3.063293   -0.572296
O       3.465686    2.617776    0.781538
C       2.249532    1.955737    1.110336
H      -0.063435   -2.210885    0.632821
H      -0.386338    1.576128   -1.218311
H      -0.634119    1.958195    0.477727
H       1.760963    2.816276   -2.110104
H       4.267472    2.617970   -1.134233
H       3.563828    4.156639   -0.611013
H       1.755684    2.468215    1.952934
H       2.454238    0.924520    1.435205
