23

C      -0.731946    1.239498   -0.035845
C       0.038166   -0.073002   -0.067169
C       1.303691   -0.145471   -1.009080
C       2.160187   -0.607772    0.198857
C       2.961303    0.438548    1.022505
C       1.713834    0.622319    1.966419
C       0.954455   -0.454667    1.141922
C       1.065745   -1.948782    1.556150
C       2.267933   -2.117041    0.552396
H      -0.070769    2.093370    0.148236
H      -1.233702    1.417755   -0.993705
H      -1.497430    1.235272    0.748333
H      -0.662449   -0.888466   -0.279980
H       1.232174   -0.847361   -1.845589
H       1.601769    0.828684   -1.412264
H       3.852812    0.042875    1.518590
H       3.256712    1.334440    0.467954
H       1.884552    0.354688    3.013428
H       1.272212    1.622250    1.948760
H       1.327667   -2.109528    2.606338
H       0.185903   -2.560022    1.332842
H       2.069196   -2.793448   -0.284407
H       3.214681   -2.419937    1.009587
