17

C       0.241057    1.448575    0.147136
C      -0.221838    0.010898   -0.075368
N       0.535042   -0.559501   -1.199064
C       1.768490   -1.242124   -0.947947
C       0.559424   -2.028395   -1.419907
C      -0.061994   -2.989705   -0.439713
O       0.034397   -2.886540    0.757240
C       0.450549   -2.431755   -2.804698
N       0.358239   -2.797952   -3.897136
H       1.295392    1.481927    0.439982
H       0.120267    2.043107   -0.762194
H      -0.344402    1.909305    0.947889
H      -0.114304   -0.577255    0.842886
H      -1.278683   -0.005616   -0.361629
H       2.572533   -1.075288   -1.659117
H       2.060350   -1.439895    0.082648
H      -0.632985   -3.813625   -0.913225
