21

C       0.054820    1.524766    0.066080
C       0.006696   -0.018968    0.001014
C       0.747778   -0.622332    1.216098
C      -1.463605   -0.496900   -0.003852
O      -2.083321   -0.053677    1.193437
C       0.630284   -0.482625   -1.242799
C       1.125453   -0.862385   -2.274533
C       1.771971   -1.352749   -3.491399
O       2.113144   -2.732291   -3.438428
H       1.089916    1.876156    0.084761
H      -0.438444    1.966436   -0.804826
H      -0.455648    1.871649    0.967249
H       0.248801   -0.320102    2.139466
H       0.751974   -1.715313    1.165825
H       1.785257   -0.278347    1.242595
H      -1.968173   -0.087968   -0.891809
H      -1.481826   -1.594021   -0.082591
H      -2.995439   -0.356483    1.190880
H       1.096538   -1.248088   -4.347972
H       2.655715   -0.731331   -3.709240
H       2.601466   -2.873894   -2.620776
