15

O      -0.099823    1.478944   -0.084655
C      -0.029467    0.078740   -0.051449
C      -1.357258   -0.673132   -0.122373
C      -1.784531   -0.771553   -1.588520
C      -0.771645   -1.759767   -0.959495
C       0.367190   -0.673328   -1.338539
O       1.677547   -0.834112   -1.693494
C      -0.651449   -0.238400   -2.395660
O      -0.474183    0.061939   -3.546825
H       0.797656    1.827891   -0.092814
H       0.558696   -0.291970    0.800166
H      -2.100694   -0.762638    0.657748
H      -2.803506   -0.971681   -1.885979
H      -0.802448   -2.837047   -0.940376
H       1.717313   -0.768480   -2.659156
