22

C       0.082028    1.521581   -0.441266
N       0.048355    0.103524   -0.119433
C       1.297506   -0.637534   -0.247697
C       0.715550   -0.383518    1.102265
C       1.375636    0.508057    2.129517
C       2.790898    0.998055    1.875421
C       0.456546    1.423265    2.937331
C       1.047848    0.199226    3.577718
O       0.238188   -0.905177    3.854261
H       1.018097    2.037047   -0.177329
H      -0.072665    1.636586   -1.519310
H      -0.739359    2.032180    0.071290
H       1.228945   -1.623345   -0.702221
H       2.189667   -0.079081   -0.526940
H       0.159941   -1.195982    1.560558
H       2.847599    1.682922    1.023279
H       3.175151    1.536895    2.748074
H       3.465838    0.159368    1.674975
H       0.819652    2.402997    3.230968
H      -0.601839    1.381249    2.701669
H       1.860356    0.343160    4.290369
H      -0.432997   -0.633840    4.488308
