19

O      -0.226184    1.563106   -0.031642
C      -0.057894    0.159957    0.007362
C      -1.385148   -0.576090    0.021509
O      -2.049733   -0.229825   -1.210726
C      -3.271981   -0.778485   -1.399986
O      -3.792940   -1.529168   -0.610340
C      -3.864252   -0.339279   -2.686988
C      -4.748449   -1.337607   -3.416145
C      -5.374653   -0.171871   -2.728614
H      -0.782023    1.750517   -0.796046
H       0.548369   -0.199451   -0.839217
H       0.487234   -0.070016    0.928607
H      -1.250551   -1.661060    0.075655
H      -2.006264   -0.259511    0.864482
H      -3.256395    0.334216   -3.276985
H      -4.692086   -1.342147   -4.498349
H      -4.851100   -2.309511   -2.948316
H      -5.897359   -0.360758   -1.798563
H      -5.760631    0.646266   -3.325307
