20

C      -0.027607    1.507509    0.018658
C       0.008807   -0.005421    0.024134
C       1.311106   -0.709276   -0.278757
C       0.762352   -0.707918    1.128406
N       0.470321   -2.077451    1.566261
C      -0.640268   -2.782271    0.914178
C       0.751123   -2.967897    0.425607
C       1.226399   -2.148700   -0.788204
O       0.358606   -2.211690   -1.917171
H       0.898022    1.927622    0.426632
H      -0.147466    1.895358   -0.998695
H      -0.858449    1.885846    0.624085
H      -0.885962   -0.472271   -0.370724
H       2.172832   -0.115303   -0.563250
H       1.200909   -0.097999    1.911318
H      -1.101164   -3.553054    1.526612
H      -1.336521   -2.234883    0.288902
H       1.288046   -3.886478    0.653368
H       2.231621   -2.491649   -1.072993
H       0.264192   -3.137316   -2.164357
