18

C      -0.050596    1.541372   -0.026473
C       0.021745    0.014319   -0.006325
C       0.748392   -0.532202   -1.230938
O       0.837356   -1.962872   -1.198328
C       1.073030   -2.513448    0.025822
N       1.075695   -1.944181    1.161438
C       0.743158   -0.527180    1.234470
C       1.337221   -3.920253   -0.088566
C       1.554984   -5.097301   -0.191282
H       0.952144    1.983544   -0.049427
H      -0.598082    1.905837   -0.902051
H      -0.559436    1.919815    0.865642
H      -0.996705   -0.395479   -0.017310
H       0.228731   -0.292843   -2.162249
H       1.765284   -0.118435   -1.288821
H       1.672103    0.036770    1.406735
H       0.130821   -0.374003    2.130905
H       1.749458   -6.138487   -0.270996
