16

N       0.019055    1.303671   -0.159102
C       0.042024   -0.006930    0.236460
O       0.998612   -0.521274    0.764466
C      -1.307146   -0.740695    0.014145
C      -1.109807   -2.169833   -0.176137
C      -0.970943   -3.347730   -0.361721
C      -2.243103   -0.402839    1.183579
C      -3.261080   -1.328737    1.689975
O      -2.044273   -1.088068    2.405911
H       0.877674    1.824510   -0.076208
H      -0.694385    1.666564   -0.766946
H      -1.782210   -0.325697   -0.887039
H      -0.823707   -4.388526   -0.513027
H      -2.416918    0.669396    1.288914
H      -4.162871   -0.930661    2.152751
H      -3.345285   -2.318273    1.247545
