23

C      -0.042868    1.469301   -0.217528
C       1.309034    0.864012    0.079565
C       1.973503    0.992628    1.437547
C       2.770484   -0.270568    1.807621
C       1.985259   -1.563196    2.028629
C       0.988929   -1.768742    3.144274
C       0.520711   -1.807538    1.707330
C      -0.415310   -0.722532    1.180602
C       0.100023   -0.027491   -0.065705
H      -0.543477    2.010375    0.580477
H      -0.219723    1.879615   -1.205967
H       2.012459    0.848805   -0.749997
H       2.657269    1.850704    1.434213
H       1.229062    1.214179    2.210011
H       3.490268   -0.453185    0.998402
H       3.376041   -0.069299    2.701641
H       2.607053   -2.437515    1.848688
H       1.034477   -2.684262    3.724968
H       0.692535   -0.897537    3.722544
H       0.316434   -2.795973    1.303114
H      -1.399976   -1.164761    0.985521
H      -0.586377    0.025102    1.961818
H       0.041671   -0.615816   -0.977763
