18

O      -0.056100    1.364075   -0.508631
C      -0.015179    0.017969   -0.071141
C       0.080601   -0.231474    1.476695
C      -1.127335   -1.208114    1.384465
C      -1.410123   -0.646528   -0.008653
C      -2.630597   -0.012051   -0.546646
N      -2.134532   -1.296517   -1.083910
C       0.950635   -0.755613   -0.846312
C       1.753283   -1.368795   -1.499801
H       0.833202    1.620254   -0.775945
H       1.025121   -0.626973    1.851856
H      -0.169163    0.695508    1.996814
H      -0.822271   -2.257083    1.348233
H      -1.914121   -1.091780    2.131930
H      -3.562966   -0.080741    0.008115
H      -2.503364    0.890828   -1.136013
H      -1.648607   -1.151472   -1.967100
H       2.459898   -1.918329   -2.071840
