19

C      -0.372914    1.334225    0.060744
N      -0.107570   -0.083431   -0.062561
C       0.545688   -0.683231   -1.111078
C       0.708053   -2.014619   -0.814470
C       0.131157   -2.243827    0.471718
C      -0.352660   -1.024786    0.904968
C       0.062160   -3.546574    1.171393
C      -0.881801   -3.782240    2.291184
N      -1.112538   -4.443847    0.995982
H       0.450025    1.862545    0.556512
H      -0.517128    1.767114   -0.931926
H      -1.286602    1.490495    0.639490
H       0.834750   -0.107348   -1.976342
H       1.165676   -2.757005   -1.450872
H      -0.831456   -0.745525    1.830245
H       0.994250   -4.108219    1.180298
H      -0.603474   -4.447345    3.104062
H      -1.543983   -2.971993    2.584154
H      -1.827895   -3.926417    0.488735
