20

C      -0.019595    1.554732   -0.050843
C       0.017473    0.025926   -0.101308
C      -1.373888   -0.596261   -0.041036
O      -2.099119   -0.169749   -1.190225
C      -3.378178   -0.762654   -1.246200
C      -3.214782   -2.257217   -1.430074
O      -2.401971   -2.824296   -0.393278
C      -1.340260   -2.117879    0.093625
N      -0.414501   -2.689470    0.738754
H       0.990917    1.968071   -0.119214
H      -0.611673    1.961541   -0.874683
H      -0.460676    1.909585    0.887696
H       0.500659   -0.313959   -1.024296
H       0.598964   -0.384061    0.726965
H      -1.899580   -0.225672    0.859532
H      -3.952058   -0.545566   -0.330091
H      -3.906794   -0.327097   -2.099404
H      -4.172766   -2.782984   -1.385112
H      -2.743264   -2.461147   -2.399834
H      -0.585894   -3.696577    0.779568
