18

C       0.000933    1.434078    0.080833
C       1.278551    0.675649    0.031544
N      -0.041015   -0.032000    0.066870
C      -0.325940   -0.602927   -1.288872
C       0.884401   -0.265248   -2.133596
C       1.226220    0.546571   -3.401785
C       2.267727    1.353811   -2.538755
C       1.850164    0.488539   -1.329653
O       2.093845   -0.881134   -1.672319
H      -0.316231    1.894794    1.011830
H      -0.307639    1.971215   -0.815412
H       1.893991    0.568241    0.919250
H      -0.468050   -1.681781   -1.180678
H      -1.247538   -0.173185   -1.695035
H       1.615046   -0.036257   -4.239138
H       0.398261    1.170757   -3.746269
H       3.318192    1.273653   -2.824630
H       1.997988    2.406029   -2.429944
