21

C       0.113165    1.482950   -0.069763
C       0.028821    0.032774   -0.051415
C      -0.061753   -1.170819   -0.033188
C      -0.153010   -2.618557   -0.015076
O      -1.223307   -3.187819    0.056869
C       1.181341   -3.350048   -0.066934
C       1.073190   -4.876460   -0.186890
C       0.561283   -5.296804   -1.571730
C       2.421193   -5.537077    0.129187
H       1.120258    1.824818   -0.329850
H      -0.589166    1.905524   -0.796283
H      -0.140219    1.895940    0.912857
H       1.773550   -2.925978   -0.889854
H       1.723794   -3.066900    0.847136
H       0.338696   -5.207779    0.556773
H       0.464887   -6.385503   -1.636255
H      -0.417473   -4.858681   -1.779289
H       1.257074   -4.979419   -2.358591
H       2.770218   -5.279929    1.135238
H       2.344988   -6.627660    0.069611
H       3.194280   -5.221349   -0.582044
