19

C       0.052605    1.513770    0.014493
C       0.036282    0.016759    0.004887
C      -0.018195   -0.788311   -1.109078
N      -0.073381   -0.543900   -2.501723
N      -0.014042   -2.106217   -0.671759
C       0.041827   -2.128575    0.687758
O       0.054228   -3.343913    1.301323
C       0.075089   -0.838138    1.164583
C       0.138807   -0.406199    2.597858
H       0.958639    1.914481    0.486883
H       0.012363    1.909049   -1.005479
H      -0.800218    1.933058    0.563557
H      -0.896837   -0.014623   -2.767980
H       0.736927   -0.033283   -2.836076
H      -0.047744   -2.909142   -1.275352
H       0.096084   -3.197112    2.251148
H       1.037923    0.184264    2.815470
H      -0.723370    0.208587    2.886028
H       0.154368   -1.262293    3.284130
