16

C       0.091577    1.583984   -0.055036
C       0.010192    0.050283    0.026061
C       0.704271   -0.447425    1.216124
N       1.212209   -0.842150    2.176993
C      -1.468893   -0.501984    0.045384
N      -2.279441   -0.107395    1.193207
C      -2.138793   -0.135065   -1.202254
C      -2.663639    0.183669   -2.234900
H       1.132229    1.913308   -0.092190
H      -0.420554    1.929402   -0.955758
H      -0.376209    2.047698    0.817620
H       0.504756   -0.381235   -0.852337
H      -1.384792   -1.595743    0.078453
H      -1.804352   -0.356143    2.056332
H      -2.436926    0.894932    1.197834
H      -3.146129    0.447509   -3.143846
