14

O      -0.036344   -0.012131    0.076055
C      -0.015099    1.175975    0.040131
O      -1.138620    1.949619    0.049264
C      -0.813313    3.341713    0.011515
C       0.706630    3.379678    0.013662
C       1.422423    2.797236    1.187823
C       0.739004    2.515935    2.415647
C       0.174902    2.290518    3.452882
N       1.168334    1.992972   -0.058480
H      -1.218783    3.776778   -0.906490
H      -1.266366    3.832474    0.878054
H       1.214575    4.102810   -0.615867
H       2.477627    3.033745    1.291688
H      -0.321581    2.076246    4.367623
