17

N      -0.019351    1.292760   -0.029010
C      -0.025780    0.030766   -0.013875
C      -1.261215   -0.847862   -0.091157
C      -0.702435   -2.229456   -0.407964
C      -0.276732   -2.521444   -1.881515
C       1.192879   -2.717506   -1.407166
C       0.804111   -2.144282   -0.026557
O       1.097635   -0.746643    0.090720
H       0.935934    1.646060    0.049436
H      -1.770151   -0.827617    0.878956
H      -1.960539   -0.461545   -0.835272
H      -1.252438   -3.047195    0.058163
H      -0.750383   -3.385196   -2.351628
H      -0.410551   -1.657663   -2.538201
H       1.482577   -3.769712   -1.344492
H       1.972209   -2.165777   -1.936127
H       1.178134   -2.648510    0.867787
