14

O      -0.035532    1.437717    0.055740
C       1.263674    0.817943   -0.010569
C       2.123969    0.856522    1.191758
C       1.804874    0.221350    2.326723
C       0.565386   -0.572013    2.473113
O      -0.699590    0.115900    2.417694
C      -0.346498   -0.691570    1.308654
C       0.012059    0.022128    0.033345
H       1.760296    0.965084   -0.968280
H       3.060823    1.400506    1.116645
H       2.482057    0.248445    3.175219
H       0.585547   -1.373255    3.210065
H      -0.931337   -1.603543    1.191420
H      -0.347578   -0.441610   -0.884850
