21

C       0.098339    1.539139   -0.126725
C       0.007552    0.030270    0.133296
C      -1.411827   -0.546985    0.047858
C      -2.329534    0.016096    1.137084
C      -2.118799   -0.558868   -1.345254
N      -2.362699   -2.045416   -1.287880
C      -1.021969   -2.655773   -1.271973
C      -1.531202   -2.078988   -0.013905
H       1.141007    1.871158   -0.122909
H      -0.327330    1.800521   -1.102112
H      -0.433152    2.119640    0.633058
H       0.650301   -0.489820   -0.586001
H       0.420242   -0.196624    1.125853
H      -2.472345    1.095318    1.025223
H      -3.316225   -0.455955    1.096280
H      -1.911078   -0.165861    2.134114
H      -3.067000   -0.017242   -1.369596
H      -1.514213   -0.255192   -2.207635
H      -1.048162   -3.737241   -1.369164
H      -0.215794   -2.174746   -1.821953
H      -1.819051   -2.702910    0.828561
