16

C       0.154121    1.538043    0.011232
C      -0.086313    0.019196   -0.039512
O      -1.461840   -0.282283   -0.063395
C       0.647039   -0.636839   -1.233551
N       1.918035   -1.070281   -0.656729
C       1.968081   -1.167178    0.705410
O       2.870529   -1.581011    1.392868
C       0.596196   -0.635584    1.163335
O       0.097611   -0.758620    2.249527
H       1.220140    1.781470   -0.042963
H      -0.360181    2.006936   -0.832116
H      -0.248571    1.949172    0.941314
H      -1.741504   -0.349959    0.860705
H       0.051498   -1.479562   -1.601433
H       0.813703    0.061951   -2.058337
H       2.678072   -1.420253   -1.219861
