21

C       0.038115    1.591376   -0.005283
C       0.053107    0.060061    0.044786
C       0.912102   -0.451972    1.221607
C      -1.378912   -0.541736    0.094766
C      -2.194713   -0.209256    1.357871
C      -3.614967   -0.715938    1.230576
O      -4.144660   -1.481475    1.992810
C       0.684616   -0.497422   -1.229028
O       1.094333    0.156418   -2.151648
H       1.047672    1.978055   -0.165188
H      -0.581973    1.953195   -0.830195
H      -0.341958    2.014786    0.928766
H       0.509555   -0.106189    2.177508
H       0.947534   -1.546666    1.247908
H       1.939084   -0.081846    1.141857
H      -1.931792   -0.190786   -0.786794
H      -1.310055   -1.633478    0.001836
H      -1.757409   -0.643713    2.259614
H      -2.248257    0.880208    1.487316
H      -4.162577   -0.321620    0.341695
H       0.745022   -1.612214   -1.247126
