23

C       0.264880    1.354287    0.260996
O       0.144403   -0.024114    0.008438
C       0.657621   -0.543863   -1.195741
C       0.257171    0.034967   -2.528371
C       1.685495    0.181310   -2.022997
C       0.771303   -2.054906   -1.062274
C       1.799569   -2.462816    0.000674
C      -0.601064   -2.676302   -0.785060
O      -0.467971   -4.089882   -0.885661
H       1.312044    1.667609    0.373364
H      -0.205358    1.973731   -0.516790
H      -0.255047    1.540461    1.204101
H       0.055928   -0.649838   -3.345243
H      -0.352081    0.931954   -2.542553
H       2.001584    1.175067   -1.729464
H       2.468760   -0.408897   -2.486772
H       1.098536   -2.441904   -2.035653
H       1.541524   -2.022478    0.968217
H       1.819893   -3.549599    0.105637
H       2.802979   -2.119390   -0.270293
H      -0.945629   -2.375294    0.213869
H      -1.330691   -2.296405   -1.517254
H      -1.289341   -4.488953   -0.586075
