20

O       0.871403    1.748059   -0.241155
C       0.061213    0.624192    0.082184
C       0.181071   -0.470992   -0.983776
N      -0.091665    0.104487   -2.300872
C       1.081985    0.418969   -3.122326
C       0.222878   -0.749693   -3.442614
C       0.485447    0.182717    1.467155
C       0.139928   -1.116079    2.054787
O       1.466075   -0.850951    1.592631
H       0.550646    2.079984   -1.086632
H      -0.995400    0.935032    0.141494
H       1.176486   -0.935644   -0.922070
H      -0.567921   -1.248629   -0.795106
H       1.014648    1.326729   -3.715821
H       2.063477    0.222754   -2.696773
H       0.631494   -1.737508   -3.237136
H      -0.480903   -0.710528   -4.269016
H       0.642433    1.024457    2.142071
H       0.027047   -1.201268    3.134707
H      -0.418122   -1.850633    1.476527
