15

N       0.011539   -1.100309   -0.027336
C      -0.034264    0.053612    0.003006
C      -0.085086    1.486085    0.041923
N      -1.135687    2.176305   -0.150530
C      -0.720175    3.552206   -0.017601
C      -1.377839    4.592469   -0.886762
C      -1.681278    4.541515    0.588774
C       0.784298    3.523983    0.290805
O       1.093066    2.106989    0.305696
H      -0.750719    5.396218   -1.259327
H      -2.137522    4.244374   -1.576482
H      -2.646503    4.158916    0.898549
H      -1.262758    5.310225    1.230664
H       1.402188    3.997823   -0.477886
H       1.042770    3.937879    1.270127
