20

C      -0.539866    1.077588    0.293788
O      -0.212514   -0.290444    0.536932
C       1.043127   -0.526421    0.973271
N       1.889843    0.394848    1.153590
C       1.246381   -2.018016    1.202197
O       2.620192   -2.228466    1.444495
C       0.357064   -2.518288    2.355999
C       0.402534   -4.030058    2.537958
O       1.736768   -4.399739    2.908241
H       0.119163    1.503463   -0.467850
H      -1.575469    1.080047   -0.049670
H      -0.435923    1.670383    1.206989
H       2.758330   -0.032010    1.477058
H       0.927304   -2.531791    0.278072
H       2.692375   -3.057055    1.940411
H       0.676068   -2.031284    3.285143
H      -0.676714   -2.219112    2.159907
H      -0.306251   -4.338014    3.319565
H       0.110103   -4.529130    1.601982
H       1.824593   -5.355450    2.849811
