17

O       0.056039    1.457566   -0.272429
C       0.058207    0.049555   -0.132581
C      -1.357164   -0.526782    0.073540
C      -1.389856   -2.018719    0.125813
C      -1.413494   -2.908230    1.187711
O      -1.451016   -2.659710    2.527806
C      -1.388778   -4.195465    0.612656
N      -1.349784   -4.127569   -0.716312
N      -1.346442   -2.814362   -0.986557
H      -0.175275    1.844478    0.577853
H       0.480800   -0.344272   -1.062680
H       0.716060   -0.283807    0.684040
H      -1.773228   -0.122259    1.007387
H      -2.003071   -0.148074   -0.727894
H      -1.566145   -1.715413    2.671894
H      -1.400133   -5.149309    1.117237
H      -1.349786   -2.514845   -1.946811
