18

O       1.947208    4.124109    0.192958
C       1.066817    3.306605    0.047254
N       1.229766    1.955704   -0.109849
C       2.426172    1.230170   -0.125787
C       2.506298   -0.108434   -0.179025
C       3.919229   -0.561154   -0.298687
C       4.644066   -0.124324   -1.558320
C       4.745544    0.715593   -0.310936
C       3.791688    1.894752   -0.134272
H      -0.007868    3.575113    0.019367
H       0.380156    1.417597   -0.199295
H       1.658930   -0.785241   -0.187986
H       4.245661   -1.459817    0.213286
H       5.532187   -0.677866   -1.846427
H       4.042708    0.232561   -2.388896
H       5.704588    0.755766    0.191026
H       3.873260    2.642077   -0.929407
H       3.970028    2.434206    0.801487
