21

C      -0.211253    1.522061   -0.036690
C      -0.012504    0.012248   -0.002852
C       1.131760   -0.588897   -0.881384
C       2.113880   -0.244008    0.275602
C       0.885446   -0.591621    1.154892
C       0.708634   -2.106896    0.883894
C       0.917710   -2.099917   -0.670495
C       0.723904   -0.115264    2.555952
O       1.512693    0.583101    3.146010
H       0.719119    2.079935    0.094164
H      -0.645091    1.820754   -0.997299
H      -0.902075    1.845790    0.748951
H      -0.983626   -0.484191   -0.116605
H       1.298182   -0.239042   -1.901297
H       3.003973   -0.868809    0.389402
H       2.395068    0.806142    0.331240
H       1.458861   -2.704670    1.408594
H      -0.280306   -2.470123    1.178975
H       0.047044   -2.479652   -1.212504
H       1.786973   -2.690208   -0.972847
H      -0.224511   -0.441626    3.047289
