16

O      -0.078813    1.335324    0.008208
N       0.033654   -0.059895    0.014457
C      -1.109291   -0.637807   -0.005450
C      -2.443805   -0.025699   -0.036912
C      -3.483054   -0.873837   -0.040508
C      -3.150732   -2.354046   -0.048476
C      -2.140766   -2.661960    1.087894
C      -1.144949   -2.151069    0.014599
O      -2.082027   -2.580503   -1.018987
H       0.842949    1.614017    0.011119
H      -2.540914    1.051455   -0.048877
H      -4.514925   -0.539794   -0.031291
H      -4.009531   -3.006795   -0.213448
H      -2.232504   -2.120437    2.030401
H      -2.023347   -3.733730    1.254234
H      -0.154023   -2.596288   -0.079325
