15

C      -0.044392    1.580383    0.039033
C      -0.008241    0.087872    0.006806
C       0.002219   -0.754516   -1.097533
N       0.014215   -2.032852   -0.626880
N       0.025975   -2.084578    0.716653
C       0.005273   -0.809300    1.105595
N      -0.071190   -0.466781    2.451281
C      -0.007838   -0.452501   -2.478234
N      -0.015499   -0.204344   -3.610130
H       0.873466    2.001555    0.468457
H      -0.154063    1.993560   -0.966555
H      -0.881230    1.940396    0.648066
H       0.021314   -2.884603   -1.161048
H       0.136681   -1.251308    3.055387
H       0.488469    0.337641    2.699818
