23

C       0.054053    1.431397   -0.376499
C      -0.007761   -0.095256   -0.256211
C      -1.403004   -0.598158    0.109863
C      -2.497719   -0.485425   -0.998689
C      -2.664061   -2.036242   -0.990034
C      -1.975147   -2.775787   -2.103949
C      -0.836479   -3.348626   -1.712327
C      -0.540625   -3.125173   -0.245499
C      -1.652308   -2.147933    0.199591
H       1.057552    1.768435   -0.654712
H      -0.642389    1.800197   -1.137222
H      -0.209016    1.913182    0.571973
H       0.313707   -0.548522   -1.202312
H       0.711509   -0.424587    0.505247
H      -1.713504   -0.100031    1.035293
H      -3.392150    0.061873   -0.689914
H      -2.154166   -0.068882   -1.950621
H      -3.688330   -2.385865   -0.823290
H      -2.377271   -2.815220   -3.111575
H      -0.180889   -3.929793   -2.352987
H      -0.581442   -4.070046    0.313720
H       0.467034   -2.725007   -0.082388
H      -2.087537   -2.437298    1.157834
