21

O      -0.134844    1.504961   -0.101826
C       0.038740    0.095940   -0.009635
C      -1.353967   -0.538716    0.001059
C      -2.071817   -0.273512   -1.353145
C      -1.867027   -1.562868   -2.112296
C      -1.460710   -2.549333   -1.316162
C      -1.328892   -2.094579    0.122304
C      -0.145471   -2.710032    0.868026
O      -0.388203   -4.109310    0.946448
H       0.733077    1.908613   -0.190743
H       0.617461   -0.288634   -0.864265
H       0.585866   -0.163191    0.909303
H      -1.900667   -0.088599    0.835173
H      -3.142727   -0.073791   -1.208097
H      -1.661667    0.608275   -1.854958
H      -2.070659   -1.656788   -3.173686
H      -1.279785   -3.577358   -1.605733
H      -2.221342   -2.422929    0.676586
H       0.795981   -2.506273    0.335305
H      -0.062819   -2.268307    1.874200
H       0.376741   -4.525068    1.354391
