18

C      -0.086198    1.426419   -0.042215
N       1.130944    0.603150   -0.107842
C      -0.183605   -0.052391    0.031546
C      -0.401494   -0.750438    1.337869
O      -1.809006   -0.866786    1.717553
C      -1.696593   -2.287250    1.911300
C      -2.015093   -3.089887    0.643516
O      -0.645485   -2.948646    0.176032
C      -0.247347   -2.284785    1.391719
H      -0.185793    2.021271    0.861594
H      -0.444011    1.912773   -0.945619
H       1.451490    0.526177   -1.069026
H      -0.588551   -0.573893   -0.830914
H       0.166837   -0.243617    2.128921
H      -2.062685   -2.624052    2.882230
H      -2.264980   -4.145287    0.810942
H      -2.744922   -2.629309   -0.030129
H       0.640320   -2.723414    1.849131
