19

O      -0.200968    1.477374    0.114527
C       0.041743    0.080830    0.062199
C       0.161238   -0.558273    1.472685
C      -1.377510   -0.771588    1.473098
C      -1.326833   -0.628407   -0.088925
N      -2.319353    0.086655   -0.852622
C      -3.655907   -0.477213   -0.742523
C      -4.619960    0.282847   -1.544300
N      -5.389114    0.889256   -2.156317
H       0.610900    1.917765    0.382647
H       0.814273   -0.156212   -0.679646
H       0.712941   -1.502176    1.445345
H       0.585127    0.078266    2.253070
H      -1.762441   -1.703496    1.892406
H      -1.897808    0.073451    1.931521
H      -1.177379   -1.618404   -0.537186
H      -2.311626    1.065085   -0.583868
H      -3.638249   -1.508768   -1.118230
H      -4.047028   -0.530734    0.289859
