17

C       0.117135    1.555696   -0.102847
C      -0.020538    0.043548    0.080791
O       0.499726   -0.627677   -1.069889
C       1.457025   -1.608912   -0.682830
C       1.586242   -1.461464    0.804713
C       0.748539   -0.530202    1.252692
C       0.517470   -0.079585    2.658991
H       1.172202    1.841719   -0.153459
H      -0.369644    1.862096   -1.032778
H      -0.356112    2.095784    0.723938
H      -1.094753   -0.197530    0.179377
H       1.109328   -2.614639   -0.973129
H       2.403569   -1.432155   -1.217302
H       2.265080   -2.057226    1.403116
H       1.133297   -0.642344    3.365092
H       0.747403    0.985559    2.783095
H      -0.533815   -0.207523    2.947132
