18

C      -0.039245    1.515075   -0.014476
C      -0.032581    0.010064   -0.048600
C       0.656725   -0.750643   -1.220755
C       0.275825   -2.182348   -0.924423
C       1.478926   -1.575406   -0.236831
C       0.787679   -0.871620    0.943040
N      -0.455241   -1.642077    1.377148
C      -0.880163   -2.198894    0.059945
C      -1.265216   -0.814359    0.406904
H       0.966601    1.916717   -0.178359
H      -0.692066    1.925330   -0.794246
H      -0.397499    1.887059    0.951395
H       0.917166   -0.369352   -2.201658
H       0.404472   -2.957112   -1.668403
H       2.488267   -1.961314   -0.304629
H       1.364763   -0.458190    1.767608
H      -1.576224   -3.027566    0.108485
H      -2.263007   -0.456270    0.641903
