13

N      -0.070102    1.399174    0.016869
C      -0.096987    0.004404   -0.006320
C      -1.161076   -0.849777   -0.011250
N      -2.515196   -0.492782   -0.056771
C      -0.615115   -2.177922   -0.050602
C       0.735194   -2.027815   -0.067671
O       1.082436   -0.720448   -0.053513
H       0.493652    1.767494    0.776706
H       0.269760    1.806897   -0.849528
H      -2.631657    0.490901    0.159030
H      -3.088697   -1.047850    0.566217
H      -1.162296   -3.107832   -0.068947
H       1.550297   -2.733126   -0.086317
