21

C       0.102159    1.553397    0.525106
C      -0.018235    0.248997   -0.283893
C      -1.354954   -0.334186   -0.237708
C      -2.462724   -0.805707   -0.179937
C      -3.806632   -1.373334   -0.119120
C      -4.691656   -0.615028    0.865512
C      -4.442644   -1.693311   -1.507792
C      -4.288680   -3.165709   -1.091028
O      -3.778309   -2.799624    0.206394
H       1.120129    1.949247    0.461484
H      -0.586853    2.312059    0.143934
H      -0.136131    1.380383    1.577976
H       0.262814    0.437210   -1.328207
H       0.705438   -0.485002    0.093466
H      -4.776425    0.436125    0.572687
H      -5.689900   -1.061230    0.891594
H      -4.260522   -0.661157    1.869216
H      -5.471227   -1.342549   -1.609072
H      -3.858916   -1.373430   -2.370167
H      -5.213565   -3.749336   -1.015573
H      -3.554728   -3.738873   -1.670843
