14

N      -0.029194   -1.131056    0.054225
C      -0.026157    0.023593    0.053262
C      -0.008225    1.469847    0.037437
O      -0.864985    2.050930    0.979516
C      -0.662747    3.471138    0.761241
C       0.358619    3.460010   -0.360039
C       1.336192    2.272056   -0.098259
O       1.412920    1.959985   -1.521390
C       0.003925    2.275250   -1.311853
H      -1.615144    3.934652    0.483529
H      -0.296423    3.931489    1.684774
H       0.742243    4.387156   -0.778740
H       2.242071    2.215846    0.502833
H      -0.678979    2.222849   -2.158012
