19

C      -0.129018    1.611270    0.048596
C       0.023297    0.096978    0.015613
C       1.194690   -0.605708   -0.752494
C       2.162002   -0.152410    0.380328
C       0.862900   -0.658769    1.080755
O       0.544068   -0.666367    2.418942
C       0.937239   -1.901102    0.089954
C      -0.243591   -2.790594   -0.148206
O      -0.189509   -3.989800   -0.005584
H       0.808958    2.149454    0.200009
H      -0.566463    1.966215   -0.890658
H      -0.809264    1.899393    0.856756
H      -0.957276   -0.346794   -0.165995
H       1.390071   -0.579007   -1.822062
H       3.058657   -0.762450    0.517673
H       2.392614    0.909415    0.454039
H       1.219387   -1.156782    2.900900
H       1.815664   -2.535862    0.238064
H      -1.192445   -2.311575   -0.468151
