16

N      -0.034637    1.255275   -0.406504
C      -0.012350    0.061907   -0.043307
O       1.089124   -0.794768    0.234310
C       0.177246   -1.674124    0.952813
C      -0.310937   -3.127424    1.156369
C      -1.367064   -2.275545    2.002249
C      -0.187574   -1.381074    2.425156
O      -2.081207   -1.389759    1.079948
C      -0.994021   -1.096561    0.207449
H       0.906806    1.641364   -0.497720
H      -0.658269   -3.678063    0.281425
H       0.285923   -3.755683    1.818870
H      -2.063677   -2.746212    2.690698
H       0.501138   -1.845147    3.132864
H      -0.433156   -0.355379    2.704440
H      -1.167982   -1.566788   -0.768100
