16

C      -0.000931    1.466074   -0.020521
C      -0.017813   -0.039879    0.048378
C      -1.254498   -0.830382   -0.296097
C      -1.125130   -2.051660    0.221254
N       0.174946   -2.206596    0.867459
C       0.646411   -0.801578    1.125810
C       1.366086   -0.771417   -0.220883
C       1.147822   -2.235520   -0.274284
O       1.572847   -3.172162   -0.872469
H       0.938901    1.873926    0.363684
H      -0.123297    1.817549   -1.049929
H      -0.818987    1.882410    0.576958
H      -2.089690   -0.436599   -0.858371
H      -1.770287   -2.914183    0.137678
H       0.995749   -0.489127    2.102164
H       2.221982   -0.202780   -0.558616
