23

C       0.229669    1.461452    0.476303
C       0.113351    0.040065   -0.097443
C       1.041686   -0.930691    0.644529
C      -1.338755   -0.440620   -0.010985
O       0.371273    0.044337   -1.517692
C       1.647265    0.418879   -1.995559
C       2.509565   -0.767083   -2.366465
C       3.956239   -0.619989   -2.565236
O       3.440627   -1.255228   -1.394645
H       1.260603    1.827645    0.469459
H      -0.388933    2.154947   -0.100919
H      -0.110920    1.478332    1.516228
H       0.784556   -0.957644    1.708496
H       0.938124   -1.942350    0.241287
H       2.091119   -0.641950    0.553779
H      -2.000259    0.244060   -0.549318
H      -1.434816   -1.432517   -0.461090
H      -1.666644   -0.496887    1.031062
H       1.473725    1.011794   -2.904554
H       2.200377    1.052066   -1.291029
H       1.986113   -1.551398   -2.914303
H       4.477831   -1.271574   -3.264526
H       4.425876    0.349613   -2.400669
