20

C      -0.017553    1.531817   -0.025866
C       0.022176    0.027816   -0.051225
C       0.127425   -0.790371   -1.342208
C      -0.449548   -1.887976   -0.431236
C       0.748072   -2.168501    0.522915
O       1.991396   -2.424220   -0.104539
C       0.699232   -0.768070    1.151790
C      -0.718853   -0.821282    1.743791
N      -1.230561   -0.793187    0.328483
H       0.959858    1.937386   -0.310829
H      -0.763611    1.910082   -0.731454
H      -0.260763    1.921611    0.967756
H      -0.606113   -0.437271   -2.070704
H       1.101107   -0.959449   -1.799777
H      -1.031257   -2.730142   -0.807382
H       0.531497   -2.953766    1.259581
H       1.929259   -3.270391   -0.559645
H       1.582797   -0.425998    1.692357
H      -1.003506   -1.690040    2.346738
H      -1.041507    0.090123    2.252010
