19

C      -0.096707    1.573318    0.009161
C       0.062913    0.050846    0.005099
C       0.744913   -0.491307   -1.271399
C       2.212767   -0.111006   -1.248723
O       2.704345    0.790374   -1.876430
C       0.585430   -2.032954   -1.368130
O      -0.780592   -2.428651   -1.340498
C       1.278485   -2.560933   -2.545900
C       1.824543   -2.957125   -3.540951
H       0.865265    2.083407   -0.098417
H      -0.736140    1.902816   -0.816601
H      -0.556273    1.910512    0.942947
H       0.643025   -0.269036    0.882167
H      -0.912649   -0.437102    0.087666
H       0.296670   -0.031190   -2.159530
H       2.828545   -0.718429   -0.542308
H       1.022167   -2.480422   -0.465626
H      -1.154189   -2.243218   -2.209579
H       2.317340   -3.318275   -4.410178
