21

O      -0.127079    1.474002    0.053635
C       0.020467    0.062200    0.070951
C      -1.370477   -0.544130   -0.095702
C      -1.403072   -2.055154   -0.024681
C      -1.024227   -2.883887    1.254989
C      -1.795136   -3.976965    0.479503
C      -2.747579   -2.861167   -0.005104
O      -0.962660   -4.222727   -0.666404
C      -0.643672   -2.877931   -1.083958
H       0.743564    1.869327    0.154733
H       0.683961   -0.276061   -0.740552
H       0.464413   -0.280762    1.019461
H      -2.016183   -0.124224    0.684614
H      -1.784215   -0.207372   -1.055029
H       0.031952   -3.073076    1.463802
H      -1.543356   -2.531950    2.148768
H      -2.119947   -4.923914    0.906886
H      -3.434607   -2.503716    0.764472
H      -3.269173   -3.024642   -0.951854
H      -1.005263   -2.699332   -2.104559
H       0.442555   -2.729675   -1.062427
