13

C      -0.042745    1.418079   -0.027320
N       0.058131   -0.031639   -0.038667
C       0.600250   -0.715982   -1.063494
N       0.576354   -2.014232   -1.250682
C       1.308933   -2.119417   -2.401164
O       1.550625   -3.300195   -2.972748
N       1.766446   -1.011056   -2.925826
O       1.268597   -0.036447   -1.997122
H       0.913471    1.853175   -0.324178
H      -0.819269    1.793989   -0.705537
H      -0.271783    1.744565    0.988649
H      -0.560976   -0.569036    0.545377
H       1.128268   -3.968293   -2.419572
