18

N       0.115328    1.151066   -0.005204
C      -0.036670   -0.158444   -0.353809
O       0.818420   -0.777883   -0.954929
C      -1.379023   -0.778116    0.043124
C      -1.263118   -2.289515    0.253709
C      -2.625756   -2.953228    0.405592
O      -2.481998   -4.345644    0.715139
C      -2.653731   -5.233198   -0.281623
O      -2.520111   -6.409841   -0.131787
H       0.959913    1.624463   -0.281474
H      -0.588927    1.665315    0.492899
H      -1.783382   -0.283920    0.934606
H      -2.082270   -0.563637   -0.774140
H      -0.724428   -2.720577   -0.595166
H      -0.663027   -2.501820    1.144834
H      -3.192820   -2.519955    1.235419
H      -3.225185   -2.832947   -0.507486
H      -2.939627   -4.752471   -1.238789
