18

C       0.021210    1.582608   -0.016314
C       0.071539    0.065425    0.064173
N       0.678598   -0.634199   -1.106631
C      -0.213260   -1.280848   -2.043885
C       1.510777   -1.501678   -0.235634
C       1.130010   -0.602901    0.917504
N       1.512035   -0.377886    2.099620
O       2.563956   -1.240247    2.463707
H       1.009344    1.984537   -0.253588
H      -0.680112    1.904071   -0.793353
H      -0.310070    2.002728    0.938289
H      -0.929181   -0.335112    0.307749
H      -0.835748   -0.530235   -2.541823
H       0.368448   -1.794955   -2.816125
H      -0.884191   -2.023365   -1.569955
H       1.124513   -2.527433   -0.113432
H       2.570774   -1.555528   -0.504892
H       2.761745   -0.951333    3.360989
