18

C      -0.032158    1.602535   -0.221059
C       1.528740    1.453205    0.083716
C       1.112850    0.247318    0.976560
C       1.117293   -1.307697    1.167001
C      -0.470287   -1.134804    1.032784
O      -1.022103   -0.730060    2.283381
C      -0.296185    0.277059    2.825727
N       0.720907    0.808213    2.293184
C      -0.095497    0.063727    0.086695
H      -0.518658    2.233705    0.521586
H      -0.325326    1.916070   -1.225235
H       2.077101    1.163981   -0.816123
H       2.028085    2.282542    0.588618
H       1.518967   -1.861622    0.317913
H       1.489584   -1.714125    2.111118
H      -1.085317   -1.960719    0.675544
H      -0.683585    0.580048    3.795078
H       0.239824   -0.430153   -0.832017
