13

O       0.000462   -0.018867    0.004232
C       0.031901    1.185746    0.009610
C      -1.196926    2.109700    0.030897
C      -0.810823    3.397125    0.031844
C       0.663387    3.403212    0.011702
C       1.181968    2.134660   -0.001523
N       2.551317    2.147950   -0.020173
C       2.856998    3.427306   -0.018133
N       1.734269    4.241520    0.001093
H      -2.205183    1.721388    0.042804
H      -1.449110    4.271125    0.044796
H       3.853407    3.842623   -0.029727
H       1.734208    5.248557    0.005941
