19

C      -0.109128    1.532274    0.111786
C      -0.060046    0.019427    0.107561
O       1.211654   -0.555729   -0.286321
C       0.802332   -0.726556    1.053848
C       1.542060   -0.203869    2.290134
C       0.945240   -1.410624    3.076534
C       0.529461   -2.071628    1.727324
C      -1.225935   -0.641157   -0.431571
C      -2.218431   -1.165249   -0.863222
H       0.808506    1.939849    0.540658
H      -0.213534    1.909336   -0.909809
H      -0.965639    1.887364    0.693220
H       2.625850   -0.279862    2.161194
H       1.300115    0.801695    2.642151
H       1.640599   -1.973192    3.701046
H       0.082797   -1.124711    3.682552
H      -0.483323   -2.470454    1.639635
H       1.241043   -2.832281    1.393332
H      -3.086884   -1.635042   -1.254274
