15

C      -0.036020    1.408673    0.064605
N      -0.172046   -0.039603   -0.013615
C       0.097550   -0.808093    1.194671
C      -0.028913   -0.605684   -1.229755
N       0.135788    0.014663   -2.357628
O       0.118166   -1.052324   -3.321286
C      -0.010687   -2.231013   -2.691616
O      -0.042219   -3.317668   -3.165159
O      -0.106544   -1.954878   -1.329516
H       1.015161    1.721187    0.124631
H      -0.482201    1.861655   -0.821721
H      -0.561943    1.761462    0.955221
H      -0.536375   -0.430058    2.001459
H      -0.137380   -1.858372    1.028076
H       1.147628   -0.723745    1.508074
