16

O       0.621913    0.704645   -1.052181
C       0.071545    1.092081   -0.041574
C       0.625288    0.847295    1.276907
C       1.072203    0.670005    2.380435
C      -1.258291    1.821587   -0.052161
C      -1.935827    2.108052   -1.410860
C      -3.070970    1.206745   -0.928607
C      -2.573789   -0.129574   -0.564857
N      -2.422585    0.960129    0.430454
H       1.474484    0.502487    3.350206
H      -1.199717    2.693097    0.604653
H      -2.218123    3.155555   -1.522611
H      -1.397127    1.776436   -2.300591
H      -4.128418    1.436995   -1.002926
H      -3.300270   -0.867619   -0.240680
H      -1.696885   -0.538355   -1.060414
