18

C       0.950436    1.259184   -0.321534
C       0.094572    0.032753   -0.029195
C       0.137854   -1.065523   -1.109643
C       1.257737   -2.010446   -0.612691
C       2.572928   -1.708904   -1.169012
C       3.647629   -1.460859   -1.646386
C       1.218595   -1.781751    0.901924
N       1.704183   -2.567474    1.759029
O       0.565821   -0.619895    1.174647
H       1.976685    0.971915   -0.565688
H       0.534285    1.813169   -1.169249
H       0.968794    1.922214    0.547638
H      -0.933913    0.340963    0.181351
H      -0.810345   -1.609300   -1.130340
H       0.329667   -0.666867   -2.106236
H       1.022857   -3.059571   -0.809946
H       4.605066   -1.252650   -2.055981
H       1.559061   -2.204250    2.702693
