16

C       0.291919    1.547020   -0.055546
O       1.295232    0.529981    0.086408
C      -0.057598    0.126077   -0.013645
C      -0.745249   -0.717179    1.072918
C      -1.347959   -1.593102   -0.052426
O      -2.607267   -1.090526   -0.545111
C      -1.965771   -0.420731   -1.655910
C      -0.565457   -0.788994   -1.136976
H       0.131614    2.169865    0.823599
H       0.299281    2.079172   -1.006371
H      -0.011377   -1.249652    1.685910
H      -1.474261   -0.220565    1.716932
H      -1.344658   -2.678878    0.064589
H      -2.231289   -0.893086   -2.610015
H      -2.212644    0.647044   -1.701785
H       0.175495   -1.195448   -1.823378
