19

C      -0.583735    1.326869    0.225556
C       0.195084    0.037974    0.067616
C       0.818494   -0.277747   -1.312935
C       2.160929   -0.252611   -0.559910
O       1.516457    0.111472    0.677864
C       2.889439   -1.601856   -0.439213
O       3.407542   -1.986125   -1.680842
C       3.991842   -1.508192    0.595866
O       5.139306   -1.760761    0.310404
H      -0.036949    2.168917   -0.209877
H      -1.556126    1.246310   -0.272841
H      -0.759469    1.541173    1.284381
H      -0.369851   -0.799605    0.498026
H       0.551061   -1.235621   -1.760946
H       0.697177    0.513699   -2.054408
H       2.876152    0.510277   -0.891622
H       2.158619   -2.341852   -0.065364
H       4.361177   -2.102777   -1.537040
H       3.689396   -1.190062    1.610196
