21

O      -0.091829    1.471804    0.113317
C       0.022466    0.053571    0.057264
C      -1.387762   -0.523816    0.038178
C      -2.209735   -0.126270   -1.213048
C      -3.195503   -1.292974   -1.457419
C      -2.561731   -2.523224   -0.817323
C      -1.123967   -2.850862   -1.138289
O      -0.429704   -2.255955   -2.201811
C      -1.434658   -2.048698    0.093829
H       0.791135    1.845279    0.043090
H       0.560753   -0.272659   -0.843625
H       0.570217   -0.331180    0.933539
H      -1.901055   -0.151264    0.935065
H      -2.721506    0.828350   -1.074625
H      -1.537773   -0.017358   -2.066217
H      -4.154795   -1.101936   -0.962640
H      -3.415618   -1.429210   -2.522885
H      -3.211977   -3.344517   -0.532839
H      -0.829133   -3.884296   -0.951032
H      -0.797467   -2.596605   -3.024090
H      -1.245235   -2.521481    1.052327
