15

O       0.059994    1.416431    0.109729
C       0.009154    0.006621    0.050030
C      -1.395271   -0.510627   -0.185425
C      -1.318136   -1.937864   -0.804566
O      -2.536164   -1.696153   -1.587254
C      -1.741936   -0.470045   -1.703670
C      -0.420344   -1.299298   -1.915809
C       0.671775   -0.518670   -1.246401
O       1.779000   -0.237760   -1.628102
H       0.964398    1.671113   -0.113570
H       0.476157   -0.454602    0.935800
H      -2.190945   -0.303143    0.526168
H      -1.200929   -2.906571   -0.319060
H      -2.127632    0.343871   -2.315337
H      -0.250708   -1.817501   -2.855342
