17

C      -0.182668    1.486762   -0.091515
C      -0.100887   -0.007478    0.018012
O       0.452945   -0.716272   -1.156270
C      -0.117949   -1.892526   -0.513913
C       0.692704   -1.960758    0.793929
C       0.701449   -0.679432    1.159000
C      -1.326362   -0.973370   -0.097873
C      -2.214312   -1.265881    1.077191
O      -2.218246   -0.630898    2.102753
H       0.819013    1.922420   -0.157280
H      -0.746855    1.782435   -0.979934
H      -0.682495    1.892249    0.793102
H      -0.218504   -2.764371   -1.157982
H       1.108325   -2.840039    1.262735
H       1.126927   -0.184780    2.019132
H      -1.941091   -0.753065   -0.979665
H      -2.910858   -2.124743    0.933903
