14

O      -0.135123    0.056078    0.161588
C      -0.058599    1.242626    0.026582
N      -1.159415    2.126568   -0.267502
C      -0.581869    3.332206    0.183107
N      -0.723866    3.851977    1.335409
C       0.660250    4.154201    1.766194
C       1.521100    3.454166    0.708278
C       1.198303    2.116284   -0.016084
N       0.702531    3.431648   -0.493077
H      -2.036241    1.852626    0.160101
H       0.903399    5.225931    1.773531
H       0.780033    3.777543    2.786130
H       2.552371    3.774410    0.582060
H       2.032219    1.667198   -0.548944
