16

C       0.281656    1.369781   -0.094601
C      -0.078404   -0.111817   -0.009450
N       0.735772   -1.014353   -0.852454
C       1.520750   -1.469246    0.195939
N       2.634197   -2.039078    0.368172
C       0.575186   -0.871808    1.233858
O       1.163892   -0.094427    2.225106
C      -1.520022   -0.322124   -0.178129
N      -2.658212   -0.478972   -0.302422
H       1.349428    1.501523    0.090861
H       0.032700    1.771009   -1.081247
H      -0.269781    1.937145    0.658941
H       1.013084   -0.845490   -1.810069
H       3.118202   -2.245748   -0.506173
H      -0.127304   -1.593788    1.662815
H       2.112263   -0.275011    2.198244
