15

O      -0.937413   -0.305137   -0.220295
C       0.379897   -0.766644   -0.517139
C       1.145569    0.280398   -1.221166
N       1.743356    1.116894   -1.748447
C       1.144610   -1.270399    0.702973
C       0.857262   -0.719025    2.090520
C       0.435741   -2.121617    1.728349
O      -0.898445   -2.489112    1.591619
H      -0.868196    0.556542    0.207612
H       0.232418   -1.598792   -1.215398
H       2.176450   -1.519901    0.473354
H       1.691541   -0.559053    2.764187
H       0.058615    0.008887    2.195158
H       1.001248   -2.940491    2.161061
H      -1.348143   -1.798030    1.086218
