20

C       0.021658    1.460643    0.005536
C      -0.005452   -0.048533   -0.020825
C      -1.156037   -0.766324   -0.711201
C      -0.717052   -2.234585   -0.661568
C      -0.919078   -2.819732    0.756912
C       0.494046   -2.288108    1.041017
C       0.703760   -0.772638    1.128041
C       1.246654   -0.817896   -0.295741
N       0.809889   -2.237750   -0.442444
H       0.959089    1.836665    0.428181
H      -0.077086    1.870636   -1.006292
H      -0.798464    1.864673    0.609623
H      -2.126475   -0.619060   -0.224018
H      -1.244929   -0.398034   -1.741357
H      -1.045445   -2.831167   -1.513957
H      -1.753300   -2.431929    1.346395
H      -0.941785   -3.912061    0.762633
H       1.177224   -2.871516    1.665045
H       1.065584   -0.218772    1.987308
H       2.154839   -0.439829   -0.751187
