18

C      -0.032901    1.514774    0.055729
C      -0.085482    0.021901    0.095895
C      -0.342576   -0.828499   -1.336449
C       0.737079   -1.778681   -1.428260
C       0.909391   -2.378928   -0.207026
C       1.892200   -1.583174    0.672975
N       0.641545   -0.782149    1.072069
C      -0.254628   -1.940843    0.710984
C      -1.167068   -1.009649   -0.090985
H       0.983018    1.867865   -0.156908
H      -0.690831    1.901417   -0.728093
H      -0.347204    1.953571    1.009244
H      -0.718938   -0.213734   -2.146513
H       1.564331   -1.612142   -2.112359
H       2.270535   -2.062196    1.580363
H       2.687858   -1.026199    0.172435
H      -0.615192   -2.571165    1.522826
H      -2.245086   -0.925499   -0.040450
