15

C      -0.306181    1.602327   -0.180408
C       0.052479    0.123303    0.026680
O       0.811695   -0.050918    1.188831
C      -1.198467   -0.750726    0.105219
O      -1.430653   -1.416774    1.094811
C      -2.077726   -0.763760   -1.041934
C      -2.808476   -0.773251   -2.006556
C      -3.674206   -0.814777   -3.164169
O      -4.538529   -0.001312   -3.383076
H       0.616864    2.185744   -0.205535
H      -0.844918    1.755709   -1.119544
H      -0.920692    1.964485    0.648635
H       0.619752   -0.225307   -0.854322
H       0.319233   -0.677976    1.742017
H      -3.475893   -1.666291   -3.844187
