17

C      -0.338834    1.373645    0.126946
C       0.131283   -0.052044   -0.073388
O       1.392988   -0.149404   -0.794852
C       2.064484   -0.797395    0.305697
C       0.780295   -0.749540    1.122036
O       0.678855   -0.319299    2.456741
C       0.214427   -1.654476    2.133979
C      -1.199869   -1.896504    2.207348
C      -2.380448   -2.118702    2.251735
H       0.412851    1.963414    0.658233
H      -0.533482    1.842335   -0.842131
H      -1.264183    1.383711    0.711166
H      -0.641537   -0.655032   -0.568184
H       2.437005   -1.794633    0.041237
H       2.885828   -0.195434    0.713966
H       0.850572   -2.445133    2.530207
H      -3.424029   -2.311512    2.299156
