21

C      -0.421904    1.298900    0.250855
O      -0.293026   -0.110366    0.223758
C       0.794753   -0.587222    0.973402
O       0.651341   -0.314118    2.346782
C       0.125434   -1.460711    3.032198
C      -0.165480   -2.508910    1.951893
C       0.835102   -2.122050    0.846475
C       0.512689   -2.662561   -0.540473
O       2.167244   -2.468452    1.234799
H       0.471663    1.788339   -0.165644
H      -1.286306    1.553572   -0.366345
H      -0.579098    1.667323    1.270975
H       1.728938   -0.114492    0.639861
H       0.883174   -1.814050    3.740489
H      -0.766928   -1.167099    3.594614
H      -0.020061   -3.534425    2.302901
H      -1.186951   -2.410929    1.574118
H      -0.469384   -2.327262   -0.876690
H       1.263169   -2.323821   -1.260535
H       0.521581   -3.759302   -0.530785
H       2.236612   -3.428415    1.210801
