15

C       0.043820    1.442545    0.031491
N       0.009493   -0.009295   -0.016877
C      -1.117521   -0.715048   -0.172069
N      -1.202132   -2.017234   -0.228934
C      -0.031205   -2.725360   -0.116051
O       0.057033   -3.942766   -0.165528
C       1.213143   -1.909091    0.074361
N       2.340142   -2.630731    0.215119
N       1.235884   -0.604376    0.111417
H       0.671904    1.825969   -0.777016
H      -0.970052    1.829359   -0.078237
H       0.460982    1.772432    0.986617
H      -2.024819   -0.119925   -0.256662
H       2.238777   -3.624014    0.074116
H       3.242600   -2.189910    0.232642
