14

O      -0.615152    0.740618   -0.663586
C       0.133704    1.054953    0.224802
C       1.379907    1.858989    0.013138
N       1.656722    3.015234    0.917775
C       1.837197    3.912429   -0.268739
C       1.748363    2.703312   -1.218003
O       3.010896    1.977843   -1.351520
C       2.725090    1.138415   -0.299411
O       3.369669    0.241034    0.124955
H      -0.053972    0.767074    1.282996
H       0.859654    3.263996    1.494136
H       1.013547    4.617462   -0.422295
H       2.788633    4.450162   -0.273098
H       1.206775    2.746655   -2.158608
