23

C      -0.069150    1.486027   -0.016004
C       0.011417   -0.030174    0.009397
C       0.735464   -0.676600   -1.202412
C       0.998482   -2.137359   -0.726510
C       0.412830   -2.130918    0.705419
C       0.765797   -3.310204    1.583759
C       0.751340   -0.708631    1.185635
O      -1.025693   -2.073866    0.570232
C      -1.348972   -0.743517    0.144537
H       0.928913    1.933517   -0.073089
H      -0.637284    1.838670   -0.884785
H      -0.561184    1.875183    0.882185
H       0.129373   -0.625722   -2.112318
H       1.672347   -0.148150   -1.407676
H       0.488047   -2.886809   -1.336326
H       2.066291   -2.378761   -0.720527
H       1.848653   -3.375139    1.726992
H       0.287447   -3.217354    2.562930
H       0.423815   -4.244318    1.127170
H       1.824728   -0.496446    1.198382
H       0.320627   -0.482295    2.165647
H      -1.989523   -0.261882    0.897693
H      -1.902596   -0.773823   -0.803622
