22

C      -0.096976    1.588303   -0.031873
C       0.014079    0.057610   -0.008035
C       0.983691   -0.394665    1.093281
C      -1.381264   -0.577748    0.135695
C      -1.418417   -2.102966   -0.018904
C      -2.850684   -2.665439    0.031121
C      -2.865424   -4.175158   -0.015234
O      -3.452921   -4.840197   -0.828919
H       0.883315    2.054754   -0.174199
H      -0.752125    1.929570   -0.840273
H      -0.508986    1.965678    0.911895
H       0.427033   -0.264278   -0.975402
H       0.601690   -0.122084    2.084851
H       1.146557   -1.476362    1.083892
H       1.960789    0.084556    0.973177
H      -1.802942   -0.302217    1.113438
H      -2.047226   -0.133736   -0.616075
H      -0.954141   -2.386387   -0.972468
H      -0.820624   -2.578026    0.768550
H      -3.321212   -2.359888    0.977657
H      -3.464024   -2.283493   -0.790414
H      -2.260027   -4.660364    0.788064
