15

C       0.023287    1.466627    0.106883
C       0.028310   -0.073964    0.026641
N      -1.296435   -0.705191    0.037280
C       0.767645   -0.527690   -1.196608
N       1.964504   -1.026573   -1.288287
C       2.090161   -1.204947   -2.644749
N       1.057732   -0.847503   -3.355788
O       0.160317   -0.383747   -2.382396
H       1.040762    1.870338    0.122030
H      -0.505562    1.895916   -0.749993
H      -0.484779    1.785509    1.022245
H       0.594529   -0.472235    0.873825
H      -1.790066   -0.429281    0.881023
H      -1.846440   -0.361081   -0.745406
H       2.974302   -1.614529   -3.111302
