16

N       0.063938    1.238850    0.081814
C      -0.001409   -0.009691    0.003464
O       1.006194   -0.975081   -0.003783
C       0.058306   -2.051562   -0.305183
C      -0.364016   -2.876656    0.931191
C      -1.521544   -1.875019    1.146555
O      -2.738439   -2.216104    0.443376
C      -2.509025   -1.203515   -0.576072
C      -1.086338   -1.026049   -0.092875
H       1.030274    1.560500    0.156312
H       0.301817   -2.530837   -1.253587
H      -0.709099   -3.889069    0.710587
H       0.391707   -2.903536    1.719429
H      -1.713681   -1.459196    2.138681
H      -2.656348   -1.590142   -1.589914
H      -3.146732   -0.324595   -0.419726
