18

C      -0.077616    1.527948   -0.053533
C       0.118629    0.030996    0.033935
O       1.211098   -0.466538   -0.806486
C       1.748967   -1.192563    0.295694
C       2.191211   -0.246481    1.381259
C       0.731151   -0.622810    1.282864
C      -0.043771   -1.271623    2.389937
C       2.240523   -2.517513    0.099731
N       2.636517   -3.596841   -0.034010
H       0.811626    2.072527    0.273640
H      -0.296480    1.817360   -1.085939
H      -0.924691    1.832397    0.570228
H      -0.801073   -0.496606   -0.250812
H       2.714331   -0.701558    2.216251
H       2.560485    0.727852    1.076474
H      -0.441876   -0.518867    3.080293
H      -0.885968   -1.851399    1.998684
H       0.590045   -1.948807    2.970050
