20

C       0.123866    1.463146    0.042068
C      -0.076875   -0.041763   -0.040507
C      -1.559349   -0.432284   -0.078341
O       0.624455   -0.472794   -1.178596
C       0.784066   -1.881478   -1.279508
C       1.549835   -2.390332   -0.060235
C       0.938672   -1.872283    1.217372
N       0.927801   -2.558554    2.280997
O       0.494398   -0.580159    1.182166
H       1.192677    1.685287    0.055083
H      -0.328944    1.947272   -0.826362
H      -0.335078    1.854637    0.952222
H      -2.019918   -0.057170   -0.996043
H      -1.695594   -1.515472   -0.033685
H      -2.075640    0.000763    0.781447
H      -0.186718   -2.386703   -1.375259
H       1.341568   -2.055794   -2.202603
H       1.589815   -3.479870   -0.018618
H       2.577801   -2.011851   -0.113795
H       0.503840   -2.016461    3.037587
