22

C       0.111362    1.773735    0.207149
C       0.012845    0.290126    0.485246
N       0.872350   -0.798110   -0.064599
C       2.336339   -0.408058   -0.047388
C       2.846392    0.536139   -1.123912
C       2.289260   -0.019321    1.455467
C       0.830035   -0.485586    1.435977
C       0.245655   -1.532796    2.356830
O      -0.796602   -2.238906    1.717177
H       1.068886    2.212579    0.491366
H      -0.063336    1.987620   -0.852334
H      -0.667336    2.290360    0.778872
H      -1.013338   -0.068370    0.439730
H       2.875345   -1.355144   -0.150933
H       2.434848    1.543380   -1.046544
H       3.937660    0.613803   -1.063586
H       2.593060    0.141786   -2.113785
H       2.938251   -0.631451    2.085216
H       2.453501    1.031594    1.710325
H       1.050978   -2.213184    2.684109
H      -0.177531   -1.074056    3.259095
H      -0.473712   -2.409470    0.819591
