21

C      -0.067217    1.540193    0.148711
C      -0.009063    0.021044   -0.040904
C       0.765628   -0.492296   -1.285818
C       2.208013    0.033318   -1.316425
C       0.692893   -2.042645   -1.343612
C      -0.144323   -2.353193   -2.555946
C      -0.514695   -1.259754   -3.231342
C       0.030538   -0.051288   -2.576961
O      -0.061128    1.090353   -2.974090
H       0.925550    1.962096    0.332347
H      -0.482915    2.038006   -0.729558
H      -0.691616    1.784072    1.014139
H       0.453346   -0.437809    0.843217
H      -1.031307   -0.377617   -0.088373
H       2.726366   -0.190292   -0.377505
H       2.775063   -0.426421   -2.132798
H       2.218887    1.114206   -1.474253
H       1.686983   -2.499293   -1.434696
H       0.246840   -2.473389   -0.438593
H      -0.397519   -3.372520   -2.829860
H      -1.106649   -1.214380   -4.136510
