21

C      -0.181827    1.474489    0.108271
C       0.054014   -0.032208   -0.100404
C       0.859875   -0.254503   -1.368319
O       0.483859   -0.870830   -2.331608
C       0.803188   -0.636405    1.078260
C       0.066959   -1.153836    2.304418
C       0.820220   -2.104079    1.399835
C       0.083516   -3.132797    0.571310
O       2.081357   -2.536570    1.849836
H       0.768608    2.017226    0.164023
H      -0.769201    1.901836   -0.709814
H      -0.718202    1.645724    1.045935
H      -0.906685   -0.536286   -0.242653
H       1.874269    0.212139   -1.345257
H       1.749364   -0.147258    1.298096
H       0.497286   -0.936850    3.275690
H      -1.018511   -1.169174    2.275350
H      -0.887689   -2.767418    0.229808
H       0.671943   -3.415378   -0.306537
H      -0.096955   -4.036636    1.166532
H       1.940374   -3.276270    2.451800
