23

O      -0.097101    1.470006    0.071192
C       0.006504    0.049426   -0.021603
C       0.791632   -0.497026    1.182252
C       1.046263   -2.012680    1.238675
C      -0.226466   -2.873319    1.340159
C      -0.924959   -3.051796    0.004139
C      -2.421765   -2.927029   -0.143557
C      -1.516424   -1.862564   -0.716490
C      -1.433055   -0.474036   -0.113507
H       0.787466    1.824096    0.208100
H       0.537019   -0.226373   -0.950134
H       1.765317    0.014195    1.204514
H       0.260694   -0.181604    2.090809
H       1.627079   -2.327956    0.361308
H       1.683538   -2.208398    2.109442
H       0.031159   -3.861517    1.739973
H      -0.907877   -2.424040    2.073218
H      -0.447978   -3.788309   -0.638507
H      -2.938506   -3.595101   -0.824178
H      -2.993409   -2.671709    0.743969
H      -1.402614   -1.875222   -1.797798
H      -1.886476   -0.448855    0.884194
H      -2.004000    0.231652   -0.726503
