16

N      -0.034165   -1.041248    0.709639
C      -0.010225    0.060636    0.361759
C       0.003651    1.435349   -0.110218
C      -1.043517    1.770967   -1.156695
C      -0.750980    3.041233   -1.905466
C       0.389913    3.720418   -1.833629
C       1.565736    3.320942   -0.986274
C       1.270627    2.198950   -0.020453
O       0.212324    2.411430    0.915153
H      -1.118987    0.928685   -1.857757
H      -2.022132    1.832868   -0.662719
H      -1.549058    3.397899   -2.550555
H       0.510925    4.626325   -2.420915
H       2.405018    3.012206   -1.625817
H       1.934956    4.183935   -0.415186
H       2.136199    1.691661    0.404412
