19

C      -0.035054    1.519089   -0.109710
C       0.097673    0.014234    0.041940
O       1.170963   -0.522161    0.199034
C      -1.198943   -0.783154   -0.015467
C      -0.981862   -2.293857    0.036419
C      -2.312677   -3.060995   -0.038740
O      -3.032940   -2.734237   -1.197361
C      -2.064328   -4.554383    0.019167
O      -2.458438   -5.298117   -0.846572
H       0.939101    1.992563    0.017326
H      -0.432986    1.761718   -1.101740
H      -0.743565    1.922287    0.622197
H      -1.835957   -0.449410    0.817000
H      -1.749280   -0.511706   -0.924071
H      -0.343335   -2.598797   -0.799370
H      -0.448978   -2.562854    0.955016
H      -2.906754   -2.811633    0.861861
H      -3.187445   -3.576509   -1.654307
H      -1.498285   -4.927003    0.897029
