18

C      -0.189532    1.524585    0.237592
C       0.100718    0.055200    0.033846
C      -1.105656   -0.925841    0.132729
C      -0.513576   -1.503597    1.452822
C       0.810523   -0.738721    1.179716
N       1.798324   -1.450673    0.410948
C       1.902926   -1.030198   -0.894906
O       2.701562   -1.376400   -1.719636
O       0.907855   -0.117384   -1.136606
H       0.740716    2.094219    0.319549
H      -0.762687    1.918550   -0.607168
H      -0.775317    1.676830    1.149536
H      -2.091920   -0.461912    0.201178
H      -1.108185   -1.637370   -0.694719
H      -1.022054   -1.135163    2.347580
H      -0.425059   -2.589384    1.517658
H       1.245157   -0.177650    2.014117
H       2.534365   -2.012730    0.802233
