16

C       0.212521    1.351596    0.182114
C      -0.086069   -0.104147    0.071819
N       0.075798   -0.824590   -0.969821
C      -0.370938   -2.145463   -0.643215
C       0.199764   -2.925158    0.608109
N       1.196198   -2.322752    1.445740
C       0.722035   -1.196097    1.799395
N      -0.593236   -0.827318    1.265578
C      -1.061882   -2.117770    0.685277
H       0.934448    1.560258    0.977842
H       0.612436    1.717580   -0.763831
H      -0.704093    1.896397    0.432539
H      -0.689886   -2.770085   -1.467158
H       0.215641   -4.003301    0.519800
H       1.258622   -0.471673    2.401365
H      -2.059970   -2.462974    0.927310
