19

C       0.011018    1.384604    0.095252
N      -0.041129   -0.056037   -0.012284
C      -0.053649   -0.803168   -1.156857
C       0.015044   -2.117691   -0.755294
C       0.008495   -3.538411   -1.236506
C       0.453397   -4.312628    0.049919
C       0.100749   -3.414104    1.277492
C       0.066359   -2.052763    0.647655
N       0.037155   -0.811386    1.112693
H       1.034898    1.737108    0.262897
H      -0.372004    1.827772   -0.826367
H      -0.610529    1.702092    0.934529
H      -0.105714   -0.327508   -2.123934
H      -0.995147   -3.850642   -1.554690
H       0.679516   -3.736304   -2.078424
H       0.001239   -5.305634    0.114186
H       1.538587   -4.453162    0.016342
H      -0.878706   -3.678651    1.696579
H       0.829705   -3.511065    2.087108
