17

C       0.025888    1.456799    0.128481
N      -0.021319    0.033473   -0.137923
C      -1.197807   -0.688844   -0.069929
C      -2.463011   -0.069837   -0.041171
N      -3.606923   -0.750658   -0.017483
C      -3.566523   -2.078871   -0.014532
C      -2.361983   -2.791338   -0.033563
O      -2.312145   -4.151955   -0.024945
C      -1.166774   -2.089755   -0.060796
H       1.066308    1.785956    0.086648
H      -0.527365    2.013392   -0.635819
H      -0.386630    1.730140    1.111674
H       0.803924   -0.479710    0.126704
H      -2.548338    1.011580   -0.039741
H      -4.518844   -2.608406    0.007357
H      -3.212070   -4.495150   -0.005674
H      -0.227245   -2.632881   -0.080063
