12

C       0.012424    1.499342    0.037420
C       0.027778    0.006567   -0.028898
C      -0.140947   -0.803662   -1.122644
N      -0.038700   -2.095427   -0.648588
C       0.184179   -2.011215    0.692003
N       0.230227   -0.764882    1.099024
H       0.962655    1.886505    0.420750
H      -0.160557    1.935946   -0.950089
H      -0.774055    1.855725    0.711370
H      -0.318853   -0.591578   -2.163894
H      -0.114936   -2.937630   -1.192935
H       0.303456   -2.887202    1.312399
