16

O      -0.126178    1.393881    0.101660
C       0.035836    0.027399    0.038665
C      -0.029477   -0.821083   -1.217525
C       1.035189   -1.901235   -1.203983
C       1.104852   -2.135328    0.295581
C      -0.255068   -1.914477    0.935712
C       0.821032   -0.854300    1.057226
C      -1.028294   -1.028704   -0.072536
H       0.634588    1.808749   -0.321381
H      -0.389854   -0.359684   -2.129467
H       0.731283   -2.801834   -1.749726
H       1.989569   -1.553114   -1.617193
H       1.778337   -2.868793    0.724546
H      -0.683418   -2.546063    1.701497
H       1.354197   -0.509664    1.932712
H      -2.099570   -0.936896   -0.181690
