20

C       0.249971    1.458045    0.130225
C       0.360906   -0.067595    0.068113
C       0.463270   -0.585181   -1.365039
O       1.639858   -0.058524   -2.020038
C       2.639212   -0.992267   -2.078815
N       3.778114   -0.791170   -2.583296
C       2.152551   -2.284229   -1.465886
C       0.626701   -2.117629   -1.493086
O      -0.081404   -2.769694   -0.459706
H       1.114371    1.932336   -0.342343
H      -0.649226    1.810589   -0.387644
H       0.194342    1.803910    1.166413
H       1.233468   -0.405247    0.639949
H      -0.512043   -0.538384    0.530547
H      -0.393329   -0.226267   -1.944789
H       3.852498    0.170826   -2.920253
H       2.532832   -3.148541   -2.011602
H       2.494387   -2.357006   -0.427283
H       0.244254   -2.425064   -2.477552
H      -0.020080   -3.718720   -0.603778
