15

O       0.926020   -0.084373   -0.367635
C      -0.205920    0.547186    0.176817
C      -1.440333   -0.371025    0.054554
O      -1.582268   -0.672476   -1.321193
C      -1.262624   -1.688601    0.842038
O      -2.242202   -2.631856    0.436710
C      -2.651579    0.323081    0.555114
N      -3.603770    0.829448    0.971378
H       0.683063   -0.336182   -1.267850
H       0.002521    0.755112    1.230541
H      -0.432376    1.499690   -0.322839
H      -2.052374   -1.520127   -1.354834
H      -0.289822   -2.104322    0.572636
H      -1.286429   -1.500252    1.921935
H      -3.083415   -2.390287    0.842502
