16

C      -0.284422    1.536607   -0.039830
C       0.107252    0.070657   -0.006324
N       0.786321   -0.529583   -1.219606
C       2.105751    0.073805   -1.292021
C       1.930481   -1.057786   -0.317953
C       2.565234   -2.322066   -0.433205
C       3.110642   -3.392564   -0.485951
C       1.229710   -0.483070    0.899233
O       1.381371   -0.594660    2.077667
H       0.564168    2.199141   -0.227632
H      -1.036151    1.711912   -0.815425
H      -0.717457    1.817121    0.924894
H      -0.779044   -0.544159    0.192882
H       2.652242   -0.173025   -2.196740
H       2.277394    1.079138   -0.916298
H       3.585147   -4.341411   -0.535958
