14

O       0.041816    0.057125   -0.277825
C       0.006209    1.233793   -0.063868
C      -1.080148    2.257394    0.325964
N      -0.014226    3.309775    0.403700
C       1.010826    2.348845   -0.050637
C       2.439267    2.275972    0.424779
C       2.143810    2.579215   -1.018414
H      -1.837372    2.406806   -0.452231
H      -1.581760    2.070108    1.280511
H      -0.171126    4.045762   -0.277621
H       2.771238    3.090611    1.058832
H       2.824401    1.294741    0.681099
H       2.323978    1.812323   -1.764434
H       2.290993    3.597927   -1.363300
