23

C      -0.208359    1.497818   -0.076876
C       0.086701   -0.005831   -0.031918
C       0.794421   -0.484914    1.239198
C       2.192841    0.107347    1.413813
C      -0.047245   -0.426577    2.578099
C       0.074368   -1.956520    2.681279
C       0.075273   -2.812638    3.905381
O      -0.531913   -2.486368    1.487015
C       0.822224   -2.022387    1.414648
H       0.707791    2.096977   -0.078941
H      -0.769368    1.755338   -0.980638
H      -0.808235    1.812904    0.784113
H      -0.849669   -0.565807   -0.122577
H       0.700125   -0.281376   -0.901176
H       2.155246    1.191836    1.555184
H       2.697550   -0.322313    2.286406
H       2.816867   -0.095149    0.535267
H       0.470046    0.111433    3.377156
H      -1.073794   -0.058888    2.498210
H      -0.912777   -2.814184    4.380122
H       0.330370   -3.844472    3.649198
H       0.798416   -2.442410    4.639382
H       1.569061   -2.727068    1.059842
