20

C      -0.118933    1.592475    0.022715
C       0.002861    0.057920    0.008009
C      -1.406605   -0.567632   -0.026495
C       0.826593   -0.447547   -1.170001
C       1.803984   -1.278990   -0.803113
C       1.884217   -1.410724    0.680543
C       2.232911   -0.123934    1.405906
C       0.787954   -0.500948    1.209118
H       0.861979    2.073822    0.063160
H      -0.632637    1.952260   -0.875940
H      -0.696436    1.927557    0.891182
H      -1.946385   -0.274331   -0.933447
H      -1.348580   -1.659944   -0.006635
H      -1.997921   -0.238466    0.836306
H       0.610667   -0.138618   -2.187856
H       2.496058   -1.772775   -1.476519
H       2.134815   -2.361027    1.139021
H       2.622168   -0.206337    2.415864
H       2.663390    0.681531    0.820203
H       0.220615   -0.777034    2.091653
