19

C      -0.050984    1.521052    0.042667
C       0.037873    0.012678    0.043098
C       0.936912   -0.787505   -0.970817
C       0.742337   -1.919713    0.106459
O       1.499922   -3.083504    0.170216
C       0.775643   -0.783704    1.163706
C      -0.769507   -2.174469   -0.065187
O      -1.608489   -1.671090    0.986372
C      -1.272855   -0.806994   -0.111822
H       0.941870    1.978690    0.100409
H      -0.534134    1.889486   -0.869834
H      -0.635986    1.880617    0.896268
H       0.545174   -0.964382   -1.977382
H       1.963565   -0.409767   -1.021732
H       2.427331   -2.840621    0.255968
H       1.789414   -0.400818    1.310132
H       0.267006   -0.942193    2.112630
H      -1.137573   -3.023743   -0.630088
H      -2.099800   -0.455627   -0.721201
