16

C      -0.145687    1.503586    0.049412
C      -0.032382    0.018937   -0.012971
C      -0.053086   -0.831881   -1.081103
N       0.080821   -2.152205   -0.690418
C       0.168980   -2.114765    0.607003
N       0.102000   -0.820375    1.099651
C       0.188038   -0.410664    2.454861
N      -0.049703   -1.423048    3.348019
O       0.478479    0.718105    2.773704
H       0.753248    1.963532    0.466905
H      -0.304222    1.885644   -0.962299
H      -0.983226    1.826745    0.675638
H      -0.156546   -0.564198   -2.122009
H       0.336220   -2.961836    1.254222
H      -0.649208   -2.190107    3.092092
H      -0.089696   -1.123570    4.309433
