19

C       0.004429    1.546361    0.052410
N       1.235420    0.709335    0.033178
C      -0.077287    0.077246    0.024333
C      -0.526888   -0.989708    1.029734
C      -2.040664   -0.946550    0.732467
N      -1.992720   -1.376860   -0.707115
C      -1.415543   -2.767325   -0.516688
C      -0.130643   -2.083988   -0.066430
C      -0.531127   -0.918212   -1.020455
H      -0.155273    2.088613    0.980743
H      -0.262924    2.096808   -0.846196
H       1.635431    0.710596   -0.903346
H      -0.158947   -1.014289    2.053480
H      -2.652279   -1.641274    1.312651
H      -2.461670    0.057858    0.824538
H      -1.981918   -3.411880    0.162981
H      -1.308066   -3.260411   -1.487216
H       0.861552   -2.530453   -0.012414
H      -0.314759   -0.856852   -2.086658
