17

C       0.000515    1.610135   -0.030091
C      -0.009400    0.080853    0.015385
C       0.689510   -0.534620   -1.202893
C       0.704128   -2.028024   -1.200439
N       0.190355   -2.768384   -0.273979
O       0.433659   -4.107680   -0.679027
C       1.104952   -4.128577   -1.872135
O       1.452267   -5.107723   -2.466809
N       1.271654   -2.787976   -2.191962
H       1.023107    2.003502   -0.046559
H      -0.514784    1.987520   -0.920460
H      -0.501828    2.029022    0.846257
H       0.481839   -0.274888    0.926547
H      -1.037876   -0.290756    0.062726
H       0.204438   -0.196023   -2.129046
H       1.727833   -0.179691   -1.263181
H       1.737699   -2.471058   -3.024249
