17

C      -0.245054    1.599628   -0.077080
C       0.096527    0.130373   -0.006882
O       0.769501   -0.276286   -1.183675
C       1.555333   -1.407417   -0.844143
C       3.033716   -1.197448   -1.248492
C       3.285127   -0.641720    0.171260
O       4.171766   -0.033702    0.686831
C       1.877789   -1.128623    0.650852
O       0.987585   -0.127138    1.081590
H       0.667521    2.182602   -0.221044
H      -0.928924    1.784638   -0.909335
H      -0.727800    1.911322    0.852222
H      -0.807940   -0.487758    0.134558
H       1.069576   -2.347195   -1.121272
H       3.578587   -2.133479   -1.411408
H       3.212527   -0.523174   -2.087709
H       1.903596   -1.979141    1.340852
