17

O      -0.034082    0.006879   -0.144098
C      -0.051176    1.196914   -0.024432
C      -1.164992    2.245030   -0.033549
C      -1.445394    2.854285    1.378558
C      -0.297462    3.895513    1.193043
C       1.003466    3.618209    1.937410
O       1.599578    2.473949    1.319257
C       1.061832    2.287298    0.015804
C      -0.047680    3.347453   -0.236964
H      -2.019763    2.067162   -0.685452
H      -2.427594    3.329220    1.413566
H      -1.360805    2.171150    2.228003
H      -0.613396    4.935885    1.280271
H       1.684174    4.480137    1.864476
H       0.853183    3.388662    2.998190
H       1.866807    2.173462   -0.717301
H       0.027847    4.000759   -1.102436
