11

N      -0.089998    1.312460    0.139731
C       0.027688    0.061834   -0.025966
N      -1.133918   -0.723583   -0.087876
C      -1.190745   -2.075305   -0.260685
O      -2.175978   -2.745799   -0.313795
O       0.064678   -2.672010   -0.380755
C       1.173818   -1.895024   -0.318178
N       1.236563   -0.637957   -0.157770
H       0.836484    1.735631    0.162778
H      -2.018723   -0.243952    0.004344
H       2.068473   -2.501048   -0.427118
