17

C      -0.001995    1.391903    0.078533
O      -0.018126   -0.012370    0.016093
C       0.687527   -0.613641    1.078777
C       0.616683   -2.096791    0.929262
C      -0.007314   -2.820488   -0.041990
N       0.233449   -4.154076    0.287701
C       0.975898   -4.139135    1.420007
O       1.365360   -5.297285    1.981366
N       1.235460   -2.933896    1.849267
H       1.023262    1.792520    0.027738
H      -0.569125    1.764639   -0.777948
H      -0.468428    1.766277    1.004015
H       1.741178   -0.282441    1.085173
H       0.262533   -0.309137    2.051716
H      -0.579014   -2.532850   -0.905598
H      -0.075404   -4.973033   -0.206379
H       1.874886   -5.055969    2.764932
