17

C       0.483788    1.551826   -0.001084
C      -0.197040    0.198560   -0.020604
O      -0.768899   -0.269007    0.934305
C      -0.112304   -0.533297   -1.342808
O      -0.412566   -1.912753   -1.371299
C      -1.352487   -1.049301   -2.015134
C      -2.734015   -0.932276   -1.430822
C      -1.241828   -1.107750   -3.515509
O      -2.134576   -0.822430   -4.269172
H       1.566952    1.427854   -0.117661
H       0.142405    2.169926   -0.839438
H       0.275203    2.054995    0.943104
H       0.720241   -0.233056   -1.983070
H      -2.689633   -0.859033   -0.345092
H      -3.241482   -0.059020   -1.848856
H      -3.319653   -1.814466   -1.705744
H      -0.243461   -1.450350   -3.868368
