19

N       0.053065   -1.105816    0.036587
C       0.028704    0.049192    0.012458
C      -0.031934    1.507909    0.015629
C      -0.838595    2.106030    1.205186
C      -1.108493    3.563227    0.710682
C      -0.433545    3.597010   -0.680854
C       1.091881    3.524215   -0.484925
N       1.314587    2.110579   -0.067014
C      -0.720013    2.172998   -1.199387
H      -1.764827    1.550283    1.377084
H      -0.254011    2.061625    2.127942
H      -2.182095    3.752414    0.625294
H      -0.696152    4.318521    1.385358
H      -0.760403    4.417320   -1.320852
H       1.633842    3.729912   -1.416101
H       1.442505    4.238895    0.268408
H       1.793630    2.046890    0.823705
H      -0.221833    1.926921   -2.138863
H      -1.782674    1.930603   -1.264795
