22

C      -0.054260    1.485799   -0.116033
C       0.062247   -0.015448   -0.006260
N       1.380404   -0.617928   -0.277133
C       0.793243   -0.743935    1.075064
C       1.512638   -0.016341    2.190510
C       0.242987   -2.108665    1.432182
C       1.168700   -3.173570    2.075757
C       0.131010   -3.177970    3.213978
O      -0.603182   -2.092160    2.607799
H       0.859070    1.985933    0.211141
H      -0.232295    1.774599   -1.157625
H      -0.892334    1.856609    0.483809
H      -0.803015   -0.546963   -0.403390
H       1.277017   -1.488990   -0.794630
H       1.815878    0.984788    1.882589
H       0.860406    0.063585    3.064673
H       2.421114   -0.551113    2.487479
H      -0.310058   -2.502578    0.564958
H       1.279207   -4.104099    1.517527
H       2.155811   -2.807299    2.359750
H      -0.476308   -4.089204    3.285316
H       0.495456   -2.915459    4.213527
