19

C      -0.894547    1.126703    0.292730
C       0.096351    0.004276    0.013810
C       0.892541   -0.026209   -1.329560
C       2.201573   -0.354404   -0.564408
C       2.852923   -1.760299   -0.604937
C       4.149331   -0.977337   -0.891784
O       3.428286    0.275222   -0.929059
C       1.463281    0.073394    0.726719
O       1.820822    0.452826    1.803670
H      -0.443505    2.104172    0.094115
H      -1.787960    1.031120   -0.332034
H      -1.206210    1.110615    1.341306
H      -0.365125   -0.971499    0.212457
H       0.576443   -0.747164   -2.085754
H       0.960739    0.967768   -1.781416
H       2.829410   -2.325102    0.328035
H       2.500986   -2.388718   -1.425033
H       4.890051   -0.992522   -0.084804
H       4.646986   -1.188224   -1.844528
