16

C      -0.082837    1.483755    0.036778
C       0.053983    0.000171    0.059352
C       1.180420   -0.866456   -0.375361
C       0.621494   -0.990107    1.058208
C       1.440111   -0.869927    2.308635
C      -0.725962   -1.653363    0.925292
O      -1.331000   -2.535273    1.443539
O      -1.177082   -0.786922   -0.062111
H       0.879691    1.955671    0.253707
H      -0.412454    1.826076   -0.949835
H      -0.814170    1.818857    0.777984
H       1.011269   -1.649470   -1.107940
H       2.161512   -0.400270   -0.415182
H       2.233533   -0.126188    2.186465
H       0.822300   -0.572654    3.161426
H       1.914796   -1.824900    2.556554
