12

O       0.059400    0.038777   -0.111667
C       0.009068    1.222645   -0.047474
O      -1.119526    1.963827   -0.192304
C      -0.848138    3.332371    0.094279
C       0.699619    3.410582    0.043092
O       1.079374    2.031529    0.191018
C       1.220395    3.969157   -1.198245
C       1.630929    4.448131   -2.219871
H      -1.328462    3.958868   -0.656964
H      -1.232132    3.578866    1.089152
H       1.103586    3.954446    0.901010
H       2.002535    4.865762   -3.123725
