19

C       0.000327    1.612309   -0.250266
C       0.020921    0.101545   -0.006914
C       0.766201   -0.679201   -1.119182
O       1.299086   -1.859741   -0.520441
C       1.535247   -1.597836    0.825947
C       2.261816   -0.367423    1.243637
C       0.736355   -0.354847    1.258718
C       0.038488   -0.392668    2.557689
O       0.576036   -0.583069    3.625000
H       1.015647    2.022266   -0.263836
H      -0.471961    1.850539   -1.209336
H      -0.559484    2.132253    0.532794
H      -1.013225   -0.263598    0.053252
H       0.119185   -0.987722   -1.944154
H       1.575312   -0.062325   -1.536588
H       1.564960   -2.495451    1.431969
H       2.715810   -0.385221    2.228361
H       2.775440    0.230684    0.499501
H      -1.065960   -0.259573    2.490562
