12

N      -0.012704    1.399538   -0.130986
C      -0.033830    0.031338   -0.048636
C      -1.206829   -0.713068   -0.025998
C      -1.051671   -2.092998    0.007275
F      -2.147358   -2.842443    0.029607
N       0.085817   -2.754398    0.023063
N       1.214852   -2.037617    0.004368
C       1.166128   -0.719551   -0.030607
H       0.842548    1.868551    0.120237
H      -0.850841    1.900378    0.116984
H      -2.193577   -0.265562   -0.035110
H       2.128803   -0.214128   -0.046106
