20

C       0.327114    1.574081   -0.407697
C       0.199595    0.139259   -0.194014
C       0.102769   -1.049643   -0.018726
C      -0.031296   -2.474456    0.205942
C      -0.142351   -3.011692    1.669040
C      -1.187523   -4.045201    1.176320
C      -1.395913   -3.198173   -0.113768
C      -2.626289   -2.299958   -0.080019
H       1.378597    1.876220   -0.471959
H      -0.161269    1.883940   -1.338564
H      -0.130353    2.143491    0.409273
H       0.775708   -3.006199   -0.310937
H       0.776522   -3.388148    2.123671
H      -0.578428   -2.262491    2.333465
H      -0.737823   -5.019395    0.964898
H      -2.068653   -4.200445    1.804277
H      -1.381504   -3.764446   -1.049712
H      -2.684421   -1.729379    0.853112
H      -2.612493   -1.579420   -0.903403
H      -3.539032   -2.900034   -0.163241
