13

N      -0.166561    1.303955    0.008918
C       0.010552    0.044896    0.001063
N      -1.137579   -0.778573    0.002800
C      -1.055820   -2.128123   -0.005157
N       0.086289   -2.765534   -0.014881
C       1.184823   -1.936619   -0.016250
N       1.222930   -0.641398   -0.009298
C      -2.289932   -2.848817   -0.002369
C      -3.342807   -3.427904    0.000194
H       0.742650    1.763229    0.006490
H      -2.033473   -0.310324    0.010279
H       2.139487   -2.459677   -0.024303
H      -4.265078   -3.956843    0.002275
