20

C      -0.425097    1.448307   -0.477689
N      -0.333707   -0.000441   -0.389198
C       0.680979   -0.586754   -0.844626
C       0.911308   -2.090757   -0.825671
C       2.153684   -2.303116   -1.676988
C       3.089725   -3.440060   -1.347778
C       2.064086   -1.768735   -3.099593
C       2.627233   -0.912716   -1.999117
O       1.754725    0.044975   -1.437493
H       0.213918    1.887360   -1.252715
H      -1.465852    1.726963   -0.670682
H      -0.147201    1.895965    0.484898
H       1.089766   -2.418152    0.205060
H       0.022016   -2.616605   -1.182403
H       2.621056   -4.410269   -1.548128
H       4.004451   -3.387592   -1.946661
H       3.378946   -3.420944   -0.290772
H       2.760809   -2.175706   -3.825110
H       1.094899   -1.493655   -3.504509
H       3.661889   -0.592397   -1.979655
