18

C       0.164239    1.614642   -0.115416
C       0.086989    0.094972    0.011798
C      -1.340981   -0.418392   -0.105908
O       0.871425   -0.459954   -1.105929
C       1.967599   -1.016744   -0.560682
N       2.091197   -1.085858    0.700742
C       0.853039   -0.509842    1.242151
C       1.135516    0.425707    2.408451
O       0.315454    1.164480    2.890915
H       1.199712    1.961701   -0.048367
H      -0.237159    1.919834   -1.085493
H      -0.409907    2.095230    0.678257
H      -1.812780   -0.054915   -1.023142
H      -1.361768   -1.511755   -0.113844
H      -1.925387   -0.065125    0.749259
H       2.694407   -1.382832   -1.278238
H       0.254884   -1.324539    1.681421
H       2.168263    0.344191    2.809224
