12

F       0.009932    0.043551    0.183566
C      -0.037211    1.374976    0.039693
F       1.204365    1.817805   -0.185642
F      -0.783477    1.646617   -1.032971
C      -0.601782    2.034509    1.291853
O      -1.898229    1.528084    1.630282
C      -1.459196    0.911589    2.865428
C      -0.054140    1.473717    2.629021
O       0.981836    1.501329    3.208490
H      -0.574106    3.123149    1.169053
H      -1.986642    1.298690    3.744489
H      -1.526820   -0.182307    2.839519
