21

C      -0.090985    1.594112    0.456577
C       0.023814    0.064811    0.451058
C      -1.320771   -0.603541    0.176590
C      -1.999540   -0.682845   -1.240982
C      -1.076881   -1.873546   -1.595290
O       0.249255   -1.576332   -1.952570
C      -1.499837   -2.134180   -0.110740
C      -2.935152   -1.784702   -0.631493
O      -3.989552   -1.477553    0.228755
H       0.867195    2.060617    0.705291
H      -0.398914    1.970851   -0.524681
H      -0.828574    1.940454    1.190336
H       0.771432   -0.249719   -0.274859
H       0.369733   -0.272665    1.438142
H      -2.008235   -0.233264    0.951389
H      -2.287330    0.139732   -1.897226
H      -1.508332   -2.584689   -2.314500
H       0.737763   -2.404644   -1.988678
H      -1.213394   -2.972562    0.527844
H      -3.349546   -2.489746   -1.356481
H      -3.691400   -0.849113    0.894091
