18

C       0.080748    1.422216    0.097538
C       0.002017   -0.060214   -0.011672
C       0.015060   -0.874550   -1.068273
C      -0.040132   -2.242338   -0.426433
N       1.053244   -2.061218    0.680845
C      -0.049510   -1.041525    1.178749
C      -1.103150   -0.627213    2.239925
O      -2.134447   -1.148930    1.308012
C      -1.063889   -2.036978    0.783806
H       0.940384    1.733386    0.704106
H       0.181285    1.879380   -0.890575
H      -0.814282    1.844666    0.569990
H       0.082841   -0.657007   -2.123858
H       0.020037   -3.150349   -1.026974
H       1.015683   -2.888049    1.288209
H      -1.091674   -1.203473    3.171752
H      -1.245810    0.437632    2.440350
H      -1.102560   -2.955352    1.383159
