21

O       0.074097    1.416208   -0.190196
C       0.016027    0.018892    0.038885
C      -1.396884   -0.549281   -0.104387
C      -1.440958   -2.073509    0.053531
C      -2.867116   -2.663629   -0.006611
C      -2.833542   -4.190690   -0.152104
O      -4.121846   -4.775032   -0.071607
C      -3.623812   -2.297637    1.257427
O      -4.495420   -1.471573    1.331141
H      -0.472839    1.846867    0.474698
H       0.678979   -0.429488   -0.710086
H       0.427036   -0.243758    1.028010
H      -2.053124   -0.079254    0.640569
H      -1.791016   -0.262562   -1.086517
H      -0.835821   -2.541834   -0.733618
H      -0.973848   -2.365221    1.005278
H      -3.409116   -2.221864   -0.852720
H      -2.316706   -4.459606   -1.085993
H      -2.259378   -4.631109    0.671723
H      -4.659105   -4.418762   -0.787006
H      -3.277038   -2.851891    2.162505
