14

C       0.064755    1.329010    0.008898
N      -0.125489   -0.102435    0.002303
N      -0.027962   -0.811617   -1.160394
C       0.094944   -2.031736   -0.700596
O       0.131672   -3.292134   -1.202761
C       0.355772   -4.104875   -0.022051
O       0.145980   -3.304861    1.169926
C       0.103226   -2.039150    0.681795
N      -0.014534   -0.824082    1.156087
H       1.127317    1.600089    0.004193
H      -0.415365    1.739571   -0.880122
H      -0.404997    1.729961    0.907790
H      -0.355694   -4.932831   -0.022194
H       1.392617   -4.461558   -0.030223
