12

O      -0.075844    1.286381    0.010402
C       0.031780   -0.036577    0.002445
N       1.205491   -0.609580   -0.006915
C       1.122603   -1.965460   -0.014165
F       2.303119   -2.545524   -0.023147
N       0.092748   -2.735960   -0.012918
C      -1.152273   -2.128379   -0.002971
N      -2.295487   -2.681172    0.000024
N      -1.125028   -0.706181    0.004760
H       0.827226    1.637443    0.007629
H      -2.175421   -3.692373   -0.006193
H      -2.011631   -0.221875    0.012128
