19

C      -0.081024    1.495427   -0.016450
C      -0.023952   -0.012752    0.031177
C      -0.527863   -0.754244    1.233358
C       0.961174   -0.768139    0.906563
C       1.550442   -1.886633    0.079985
O       2.501832   -2.558365    0.398583
C       0.899861   -1.900257   -1.285871
C      -0.596413   -2.139443   -1.413043
C      -0.071366   -0.738210   -1.324210
H       0.699873    1.901031   -0.669648
H      -1.048867    1.841414   -0.397934
H       0.057901    1.926538    0.979554
H      -0.796538   -0.157773    2.099688
H      -1.114307   -1.658906    1.138043
H       1.636463   -0.286125    1.604354
H       1.536965   -2.188932   -2.113148
H      -0.925054   -2.481023   -2.388996
H      -1.147876   -2.583325   -0.594373
H      -0.145555   -0.103790   -2.200188
