18

C      -0.013742    1.587796   -0.073544
C      -0.006112    0.058949   -0.006845
C       0.944375   -0.580078   -1.086060
N       2.301925   -0.660152   -0.478672
C       2.082588   -0.615151    0.769370
N       2.889101   -0.415350    1.881164
C       2.036899    0.208991    2.815231
N       0.785711    0.230297    2.545159
C       0.666545   -0.498604    1.268471
H       1.002685    1.992614   -0.028794
H      -0.467652    1.927007   -1.009982
H      -0.580047    2.013137    0.759264
H      -1.027401   -0.317067   -0.115575
H       0.599582   -1.584288   -1.368645
H       0.993003    0.015598   -2.003035
H       3.867522   -0.181109    1.805034
H       2.472010    0.623363    3.719375
H       0.249092   -1.491996    1.492583
