16

O      -0.203658    1.317750    0.070631
N      -0.013377   -0.085997    0.074043
C      -1.128175   -0.687729    0.088508
C      -1.444350   -2.122268   -0.059575
C      -2.763914   -2.473237    0.695599
C      -3.214971   -1.565098    1.795084
C      -3.182358   -0.299294    1.369416
C      -2.605218   -0.265367   -0.034637
C      -2.827826   -1.718269   -0.591762
H       0.703239    1.638050    0.029138
H      -0.770838   -2.902817   -0.386318
H      -2.987921   -3.533818    0.707622
H      -3.478914   -1.911115    2.785922
H      -3.375889    0.591280    1.952293
H      -2.808191    0.605839   -0.652777
H      -3.319054   -2.011052   -1.510395
