18

O      -0.151329   -0.002208    0.065968
C      -0.039117    1.196641   -0.046297
C       1.232458    1.919477    0.029926
C       1.319325    3.399577    0.348659
C       1.798561    2.960684   -0.989848
N       3.099647    2.271844   -1.031699
C       4.155195    2.758167   -0.072288
C       3.731860    1.697444    0.984779
C       2.619782    1.270781   -0.008324
H      -0.926449    1.846096   -0.232999
H       0.362791    3.914370    0.336740
H       1.992288    3.738946    1.128442
H       1.339629    3.314740   -1.906745
H       5.155744    2.618223   -0.488870
H       4.047567    3.805847    0.224466
H       4.477128    0.921431    1.167597
H       3.389150    2.082778    1.948096
H       2.591594    0.227158   -0.325883
