14

C       0.054582    1.554280    0.065311
C       0.102732    0.043136    0.055942
C       1.325871   -0.785210   -0.204978
N       2.542310   -0.205957    0.371271
C       1.979829   -0.154556    1.663211
O       2.403216    0.275526    2.697794
C       0.696548   -0.818411    1.181513
H       0.979755    1.992563    0.448282
H      -0.110326    1.940572   -0.946279
H      -0.764377    1.910063    0.698082
H      -0.800012   -0.420189   -0.341849
H       1.394313   -1.588547   -0.927020
H       3.055690    0.566176   -0.038905
H       0.139744   -1.602936    1.673663
