20

C      -0.773294    1.275474    0.042572
C       0.098675    0.027464   -0.060581
C       1.254320    0.111348   -1.085130
C       2.311616   -0.815723   -0.524178
C       3.483126   -1.260460   -1.339413
C       2.058612   -1.117745    0.750397
C       0.800913   -0.436529    1.264774
C       1.138423    0.669102    2.171922
N       1.411931    1.539283    2.882970
H      -0.187866    2.145768    0.354007
H      -1.229643    1.501938   -0.926380
H      -1.582035    1.141083    0.768137
H      -0.531776   -0.819958   -0.353190
H       0.929801   -0.173088   -2.092911
H       1.649837    1.134702   -1.165278
H       4.058772   -0.397384   -1.696834
H       4.155641   -1.904679   -0.767221
H       3.157617   -1.808358   -2.232455
H       2.684869   -1.724263    1.393986
H       0.151512   -1.118259    1.826963
