18

C      -0.522661    1.297568    0.166592
C       0.063356   -0.093139   -0.014957
C       1.005526   -0.330387   -1.233740
C       2.092296   -0.824603   -0.241714
N       1.212766   -0.425397    0.862345
C       1.239308   -0.963992    2.110064
N       2.236139   -1.649609    2.537874
C       0.059502   -0.681571    2.916979
N      -0.863849   -0.492328    3.587474
H       0.261172    2.058765    0.105357
H      -1.260926    1.493711   -0.618262
H      -1.024769    1.392920    1.133457
H      -0.729372   -0.848915    0.055462
H       0.658682   -1.067441   -1.957639
H       1.268052    0.591075   -1.756360
H       2.282884   -1.903285   -0.253928
H       3.052458   -0.301617   -0.254481
H       2.099944   -1.930018    3.505982
