19

O       0.129573    1.389147    0.189836
C       0.052687   -0.005537   -0.073159
C      -1.357552   -0.513457   -0.063666
C      -2.072858   -0.954294    1.185013
C      -1.915168   -1.945514    0.063667
C      -2.899491   -1.693383   -1.102478
C      -4.268479   -1.056028   -0.792311
O      -3.684580    0.275188   -0.779275
C      -2.393306   -0.242964   -1.183973
H      -0.375787    1.557401    0.992432
H       0.507591   -0.137048   -1.062013
H       0.657363   -0.589475    0.641111
H      -1.426684   -1.141950    2.037883
H      -3.036467   -0.526954    1.438407
H      -1.366536   -2.868720    0.208390
H      -2.825002   -2.387172   -1.937838
H      -5.002665   -1.154138   -1.601403
H      -4.745330   -1.313312    0.160653
H      -2.006085    0.232769   -2.088179
