20

C       0.070133    1.599658    0.038400
C      -0.004815    0.070679    0.013536
C       0.782174   -0.580027   -1.146675
C       1.514425   -1.654138   -0.806019
C       1.195418   -2.000142    0.625777
N       2.012127   -1.854984    1.969252
C       2.178835   -0.393514    1.544473
C       0.700247   -0.661171    1.152403
C       0.646089   -1.378014    2.532839
H       1.106079    1.940715    0.135216
H      -0.339667    2.031598   -0.880550
H      -0.499414    2.005796    0.880297
H      -1.059900   -0.233218   -0.060860
H       0.717757   -0.176445   -2.153406
H       2.102479   -2.248600   -1.496103
H       0.538806   -2.875577    0.697879
H       2.367009    0.278177    2.386775
H       2.912151   -0.246779    0.750569
H      -0.081833   -2.182831    2.665473
H       0.756740   -0.780985    3.441732
