19

C      -0.384106    1.598888   -0.225792
C       0.063799    0.141874   -0.010849
C       0.880096   -0.404345   -1.126009
C       2.148586   -0.850177   -1.285742
C       3.254317   -0.954635   -0.290673
N       2.342983   -1.254205   -2.614747
C       1.200500   -1.022937   -3.177815
N       0.865107   -1.171351   -4.502480
O       0.250082   -0.513010   -2.368359
H       0.480597    2.262896   -0.318097
H      -0.976623    1.690789   -1.140356
H      -0.996007    1.944824    0.613011
H       0.656055    0.065537    0.906785
H      -0.823466   -0.487765    0.142758
H       3.603082   -1.989566   -0.203276
H       4.115218   -0.351976   -0.600567
H       2.938067   -0.615025    0.698876
H       1.494300   -1.789141   -4.993713
H      -0.109019   -1.379441   -4.667814
