23

C       1.898243    0.084809   -0.812788
C       0.994664   -1.149293   -0.708506
C      -0.495958   -0.837862   -0.465892
C      -1.159044   -0.261638   -1.718578
O      -2.470670    0.169745   -1.375864
C      -1.275467   -2.075703    0.023532
C      -0.986019   -2.456695    1.454404
C      -1.038332   -3.845267    1.927760
O       0.215880   -3.191826    1.726553
H       2.942565   -0.209953   -0.956177
H       1.625917    0.734955   -1.650384
H       1.847721    0.686475    0.101593
H       1.085788   -1.752950   -1.622921
H       1.352621   -1.787698    0.103856
H      -0.570904   -0.062942    0.311184
H      -0.565069    0.577462   -2.108556
H      -1.188962   -1.036440   -2.503417
H      -2.905301    0.479010   -2.175511
H      -2.347389   -1.864489   -0.061334
H      -1.057699   -2.933183   -0.626451
H      -1.185001   -1.672750    2.188640
H      -1.292699   -4.059878    2.964930
H      -1.268205   -4.642448    1.221425
