21

O      -0.118890    1.401458    0.209509
C      -0.028027    0.017373    0.089829
C      -0.747007   -0.875130    1.082385
C      -1.250937   -0.733451   -0.343468
O      -2.345257    0.095354   -0.587026
C      -3.608114   -0.486644   -0.273347
C      -4.685764    0.537573   -0.486797
C      -5.216957    0.791808   -1.873749
C      -6.075556    0.082579   -0.858298
H      -1.015130    1.633820   -0.069343
H       0.940370   -0.301934   -0.283954
H      -0.292846   -1.813175    1.383809
H      -1.312868   -0.363429    1.853757
H      -1.163734   -1.582324   -1.021833
H      -3.782068   -1.361455   -0.920427
H      -3.600880   -0.843610    0.767105
H      -4.616708    1.398485    0.172008
H      -5.472523    1.809564   -2.145541
H      -4.800854    0.206054   -2.686535
H      -6.244620   -0.981360   -0.988893
H      -6.917114    0.613656   -0.428475
