18

C      -0.031861    1.478693   -0.148207
C       1.516205    1.549700    0.092311
O       2.025936    2.451871    1.050897
C       2.309002    1.891174    2.353464
C       1.187797    0.989049    2.808437
C       0.830887    0.062606    1.923415
C      -0.489140   -0.463251    1.401585
N      -0.043348   -0.026311    0.018023
C       1.392713    0.076121    0.518972
H      -0.613224    2.022073    0.602837
H      -0.365740    1.770165   -1.146646
H       2.074264    1.708135   -0.835754
H       3.268360    1.355146    2.309488
H       2.438412    2.750518    3.014541
H       0.600510    1.235209    3.687446
H      -0.611109   -1.551158    1.405519
H      -1.404881    0.006498    1.775074
H       2.113238   -0.678280    0.195912
