21

C       0.007715    1.560915    0.020682
C       0.030151    0.034965    0.000834
C       0.723523   -0.503119   -1.258253
N       0.908395   -1.942841   -1.157129
C       0.954184   -2.687491   -0.013021
O       1.197788   -3.881933   -0.035267
C       0.620893   -1.946975    1.295750
C       1.510919   -2.447794    2.431600
N       0.654574   -0.483720    1.216414
H       1.026118    1.966989    0.043205
H      -0.491507    1.961737   -0.866993
H      -0.517251    1.917706    0.909692
H      -1.004160   -0.336841   -0.000574
H       0.125527   -0.280816   -2.150774
H       1.692035    0.008350   -1.383749
H       1.154670   -2.460568   -1.988981
H      -0.417432   -2.234288    1.522455
H       2.555809   -2.160878    2.263559
H       1.184570   -2.019163    3.382297
H       1.468902   -3.536086    2.481166
H       1.620888   -0.166515    1.260255
