24

C      -0.169502    1.593011   -0.003631
C      -0.109809    0.063172    0.001207
C      -1.495101   -0.592241    0.025481
C      -1.436705   -2.122627    0.028316
C      -2.809495   -2.814343    0.039411
C      -2.684935   -4.334976   -0.117968
N      -3.555479   -2.481528    1.252526
C      -4.812634   -1.964109    1.251296
O      -5.458556   -1.680690    0.264132
H       0.832629    2.032706   -0.021952
H      -0.712706    1.964403   -0.879560
H      -0.683660    1.972133    0.886596
H       0.441074   -0.284785   -0.882890
H       0.468670   -0.279020    0.870068
H      -2.047105   -0.245293    0.908045
H      -2.074586   -0.253691   -0.843932
H      -0.891069   -2.469493   -0.858503
H      -0.852659   -2.471326    0.893656
H      -3.420396   -2.419285   -0.777567
H      -2.105594   -4.770558    0.704970
H      -3.671923   -4.805118   -0.127016
H      -2.175068   -4.586158   -1.053238
H      -3.141125   -2.708043    2.144158
H      -5.194453   -1.818972    2.282354
