17

C      -0.013031    1.483555    0.032685
C       1.448283    2.012295   -0.164856
C       2.065439    0.886487   -0.944309
O       1.750438    0.658090   -2.360911
C       2.037842   -0.679912   -1.871485
C       3.165792   -0.222769   -0.870962
O       2.573239   -0.875172    0.283722
C       1.398766   -0.416247   -0.474418
C       0.072559   -0.080411    0.171374
H      -0.507078    1.948830    0.889832
H      -0.599578    1.731857   -0.856430
H       1.486493    2.986222   -0.657860
H       1.963340    2.091322    0.798566
H       1.988652   -1.519045   -2.566731
H       4.252098   -0.204135   -0.963872
H       0.119598   -0.386384    1.220794
H      -0.786978   -0.579567   -0.280929
