14

O      -0.749831    0.810506    0.700325
C       0.141819    0.987319   -0.087626
C       1.202791    2.025074    0.081842
O       2.417319    1.774116   -0.653823
C       1.614179    2.826976   -1.086759
C       1.009971    3.005711   -2.497877
N       1.425967    4.408754   -2.380036
C       2.010482    4.318988   -1.135000
O       2.567400    5.097855   -0.416407
H       0.251143    0.388015   -1.018808
H       1.326807    2.449737    1.075749
H       1.530821    2.441728   -3.277321
H      -0.071039    2.858736   -2.580521
H       1.279043    5.199227   -2.987986
