19

O      -0.113903   -0.002481   -0.265759
C      -0.052603    1.195362   -0.105445
N      -1.088248    2.110335   -0.258291
C      -0.706591    3.419276    0.246975
C       0.838529    3.366880    0.110679
N       1.068151    1.932429    0.266102
C       1.342462    3.916023   -1.209070
C       1.707555    5.373507   -1.327481
C       2.788728    4.321878   -1.349140
H      -2.025458    1.759175   -0.144224
H      -1.134090    4.231453   -0.347506
H      -0.997071    3.563594    1.297177
H       1.311477    3.922189    0.929239
H       1.964348    1.538867    0.022745
H       0.880944    3.456721   -2.079333
H       1.468996    5.890448   -2.249901
H       1.624435    5.992355   -0.439398
H       3.427566    4.240919   -0.474864
H       3.293609    4.117316   -2.286332
