18

C      -0.661879    1.255936   -0.024384
C       0.133742   -0.034387    0.000254
N       1.332464   -0.062346   -0.902119
C       2.199034   -0.547334    0.183592
C       2.891867    0.599056    0.948451
O       1.716992    0.834171    1.762969
C       1.046630   -0.311573    1.222345
C       2.876905   -1.858518   -0.011146
O       2.682622   -2.570844   -0.967275
H      -0.020762    2.098875    0.243156
H      -1.069871    1.431288   -1.024536
H      -1.496938    1.212497    0.683279
H      -0.522131   -0.901305   -0.160567
H       1.268279   -0.754385   -1.643315
H       3.741873    0.287672    1.570342
H       3.159600    1.461391    0.331980
H       0.709163   -1.008303    1.993224
H       3.575284   -2.155780    0.801858
