15

O       0.057669    1.333382   -0.290218
C       0.064719   -0.067897   -0.068008
C       0.252493   -0.495054    1.406469
C      -1.305525   -0.540917    1.579669
C      -1.840451    0.700895    2.107467
N      -2.222089    1.724116    2.491285
C      -1.391589   -0.619437   -0.008400
O      -2.362180    0.088523   -0.690655
H      -0.170988    1.792902    0.526877
H       0.733074   -0.497338   -0.816738
H       0.686226   -1.493228    1.493161
H       0.804155    0.191184    2.051534
H      -1.719737   -1.389101    2.127476
H      -1.446507   -1.673471   -0.296351
H      -2.007947    0.983063   -0.808434
