18

C      -0.056994    1.573408    0.095226
C       0.016917    0.060459   -0.035229
C       1.104650   -0.566909   -0.983547
C       1.692957   -1.317046    0.223358
C       2.400462   -2.630166    0.264229
O       2.060581   -0.313981    1.179332
C       0.680704   -0.709260    1.128139
C       0.074418   -1.206510    2.323172
N      -0.458858   -1.610441    3.267165
H       0.920041    1.981098    0.368276
H      -0.366448    2.027386   -0.851599
H      -0.780939    1.869211    0.861428
H      -0.965532   -0.368083   -0.252334
H       0.676478   -1.226633   -1.741202
H       1.796263    0.135463   -1.454703
H       3.395838   -2.539054   -0.184311
H       2.517291   -2.969655    1.296249
H       1.843996   -3.385804   -0.298179
