16

O       0.117011    0.135698    0.463093
C       0.035633    1.255522    0.026094
C      -1.237467    2.101243    0.060714
O      -0.912168    3.308615    0.764806
C       0.064493    4.051426    0.092557
C       1.561760    3.950894    0.359413
C       1.984975    2.536805    0.754234
N       1.171041    1.990434   -0.391416
C       0.922379    3.355761   -0.897788
H      -1.627996    2.321337   -0.942119
H      -1.997859    1.581953    0.642851
H      -0.263696    5.057564   -0.160600
H       2.169716    4.841640    0.451834
H       3.050197    2.348344    0.600467
H       1.681042    2.164740    1.736510
H       1.034176    3.583989   -1.950879
