19

C      -0.279479    1.493135    0.185128
C       1.098092    1.013361   -0.170364
C      -0.011327    0.006600    0.021850
C      -0.067524   -0.921068    1.179440
C      -0.633574   -2.087015    0.865362
C      -1.066551   -2.135339   -0.579417
C      -0.540291   -0.810260   -1.150869
C      -0.992481   -0.259198   -2.430730
O       0.281169   -0.902110   -2.325386
H      -0.457279    1.858086    1.191505
H      -0.869239    1.990796   -0.576995
H       1.446693    1.146802   -1.188454
H       1.876543    1.060113    0.583599
H       0.313368   -0.644433    2.156535
H      -0.788606   -2.912856    1.549362
H      -0.636017   -2.976536   -1.134993
H      -2.157735   -2.217217   -0.674314
H      -1.744309   -0.794690   -3.011120
H      -0.959318    0.814712   -2.613442
