19

C      -0.986063    1.185011   -0.003615
C      -0.001098    0.038619   -0.052701
O       1.220409    0.372700   -0.759126
C       2.023405   -0.357724    0.196988
C       3.252371    0.311320    0.573330
C       4.272642    0.849100    0.914225
C       0.805527   -0.409164    1.192745
C       0.882378    0.573668    2.347894
O       0.420452   -1.694867    1.615361
H      -0.545569    2.077666    0.447420
H      -1.306042    1.440336   -1.018624
H      -1.875078    0.898743    0.568040
H      -0.470855   -0.848514   -0.501945
H       2.238093   -1.373164   -0.165697
H       5.176437    1.327448    1.201439
H       1.176986    1.568666    2.007766
H      -0.085041    0.641207    2.854124
H       1.636924    0.246484    3.072964
H       0.847230   -1.882234    2.458140
