17

C      -0.005599    1.475378    0.009560
N      -0.019349    0.031195    0.000705
C      -1.166313   -0.785093    0.003314
C      -0.863722   -2.088885   -0.006325
C      -1.801292   -3.249360   -0.007035
C       0.642616   -2.200828   -0.016568
C       1.127427   -0.743330   -0.011575
O       2.264769   -0.323879   -0.015822
H       1.040786    1.785621    0.002761
H      -0.507636    1.886222   -0.874133
H      -0.492727    1.875361    0.906508
H      -2.141398   -0.316513    0.012442
H      -2.843525   -2.916435    0.001377
H      -1.659776   -3.884782   -0.891083
H      -1.648774   -3.894756    0.867914
H       1.048367   -2.726208    0.856374
H       1.037132   -2.716309   -0.900485
