17

C       0.020915    1.446317   -0.115064
N       0.011283   -0.014792   -0.012534
C      -1.215038   -0.659279    0.079107
O      -2.266557   -0.052406    0.077216
C      -1.212777   -2.178026    0.185456
C       0.124150   -2.836740    0.181198
C       1.247713   -2.128987    0.088706
C       1.255172   -0.664505   -0.014667
N       2.307387    0.060630   -0.106154
H       0.583922    1.873043    0.717665
H       0.513326    1.750301   -1.041197
H      -1.012595    1.782662   -0.097232
H      -1.772394   -2.431508    1.095356
H      -1.837504   -2.552744   -0.635928
H       0.154527   -3.920013    0.256354
H       2.222826   -2.604369    0.085154
H       3.137749   -0.529893   -0.096436
