18

C      -0.174593    1.413547   -0.112293
C       1.255912    1.014154    0.139331
C       0.173351   -0.039948    0.101637
C      -0.256487   -0.724467    1.342682
N      -0.302079   -0.075995    2.700366
C      -0.788987   -1.467845    2.974029
C      -1.570858   -1.528913    1.635093
O      -1.021485   -2.813831    1.222931
C       0.096092   -2.161279    1.890023
H      -0.700283    1.915193    0.692236
H      -0.458166    1.727624   -1.110412
H       1.959719    1.046776   -0.684775
H       1.685639    1.271483    1.101573
H       0.150267   -0.686777   -0.770617
H       0.646965    0.035178    3.066877
H      -1.084970   -1.822896    3.960803
H      -2.609532   -1.294652    1.407559
H       1.048443   -2.688988    1.967074
