19

O      -0.094131    1.392934   -0.271781
C       0.059094    0.008172    0.063103
C      -1.330821   -0.574783    0.011394
O      -2.205832    0.088448    0.885959
C      -1.970692   -1.086818   -1.265017
C      -1.078407   -1.515612   -2.414151
O      -0.073840   -2.362753   -1.850987
C      -0.587475   -2.976183   -0.669473
C      -1.643757   -2.035305   -0.121101
H       0.709420    1.855984   -0.019514
H       0.733706   -0.501545   -0.631701
H       0.450843   -0.099619    1.085169
H      -2.059634    1.029036    0.719738
H      -2.990360   -0.782540   -1.466532
H      -1.672913   -2.055905   -3.167933
H      -0.557929   -0.691836   -2.914358
H      -1.049775   -3.949952   -0.896665
H       0.263712   -3.152230   -0.002670
H      -2.420264   -2.430621    0.522992
