19

O      -0.066142    1.458245    0.109642
C      -0.014963    0.043451    0.005544
C       0.693576   -0.638412    1.205017
C       0.017927   -2.023878    1.357874
C       0.053515   -2.521286    2.785794
O       0.583189   -3.538043    3.154097
C      -1.403583   -1.797025    0.835659
C      -2.150534   -0.570395    1.308392
C      -1.414275   -0.539942   -0.004374
H       0.828496    1.798753    0.009383
H       0.487857   -0.247687   -0.930193
H       1.774978   -0.722331    1.070741
H       0.524997   -0.021213    2.094828
H       0.522225   -2.772226    0.738440
H      -0.469431   -1.851356    3.508653
H      -1.979356   -2.669487    0.548988
H      -3.232554   -0.614354    1.261026
H      -1.773175    0.015765    2.138259
H      -1.985277   -0.482192   -0.923392
