20

C      -0.108753    1.565577   -0.076386
C       0.004576    0.066846    0.025459
O      -1.158045   -0.555054   -0.454538
C       1.344625   -0.616427   -0.193689
C       0.707006   -0.600079    1.169330
C       1.272390   -0.122435    2.511140
C       0.614977   -1.373565    3.095103
C      -0.818805   -1.432807    2.761357
N       0.157190   -1.870136    1.729366
H       0.791297    2.054572    0.305701
H      -0.243804    1.865036   -1.120864
H      -0.971281    1.926957    0.493032
H      -1.169938   -1.456667   -0.110027
H       1.342918   -1.567970   -0.716624
H       2.224131   -0.001176   -0.360131
H       2.363955   -0.155850    2.539320
H       0.931865    0.838108    2.909764
H       1.075598   -2.049421    3.807509
H      -1.396190   -2.258529    3.165337
H      -1.379565   -0.516968    2.591887
