20

C       0.030141    1.545168   -0.066003
C       0.050383    0.028296    0.040400
O       0.750067   -0.495653   -1.090336
C       1.229317   -1.794968   -0.758844
C       1.527227   -1.746223    0.728031
C       2.264078   -0.516929    1.201315
C       0.755266   -0.562048    1.262836
C       0.025004   -0.566367    2.582516
H       1.045161    1.950218   -0.025066
H      -0.427335    1.853905   -1.010039
H      -0.552003    1.978444    0.753429
H      -0.989583   -0.347776    0.040763
H       0.470009   -2.566448   -0.969657
H       2.101751   -1.990612   -1.391829
H       1.603465   -2.674598    1.282930
H       2.796672   -0.587360    2.143782
H       2.742890    0.110243    0.455710
H      -0.134337    0.451754    2.956979
H      -0.958148   -1.043552    2.491981
H       0.590745   -1.110054    3.345303
