21

C      -0.047262    1.550568   -0.058029
C       0.043074    0.025206   -0.004237
C       0.673238   -0.556071   -1.275836
O       0.694289   -1.973861   -1.265573
C       1.453573   -2.491341   -0.185679
C       0.887749   -2.047864    1.164085
C       0.809498   -0.501805    1.243214
C       2.142736    0.087197    1.374889
C       3.244902    0.555928    1.488689
H       0.946358    2.003047   -0.130356
H      -0.635255    1.876180   -0.922483
H      -0.528487    1.948346    0.841685
H      -0.970917   -0.389492    0.067901
H       0.091261   -0.266696   -2.156353
H       1.694644   -0.157205   -1.397407
H       1.420303   -3.580323   -0.282954
H       2.505502   -2.173389   -0.271919
H      -0.123903   -2.453305    1.278618
H       1.503127   -2.441778    1.979106
H       0.235247   -0.225158    2.137233
H       4.214852    0.974744    1.596129
