17

C       0.046272    1.545718    0.108627
C      -0.009594    0.014439   -0.044369
C      -1.371014   -0.510325   -0.050340
C      -2.507473   -0.911295   -0.074700
C      -3.865426   -1.431788   -0.046568
C      -3.840906   -2.974163    0.042611
O      -4.569641   -3.682404   -0.591836
C      -4.619692   -0.883411    1.185141
O      -5.754698   -0.501839    1.146983
H       1.084941    1.888147    0.106175
H      -0.481615    2.037664   -0.712431
H      -0.418836    1.860490    1.046529
H       0.493684   -0.282766   -0.973052
H       0.554775   -0.458840    0.769015
H      -4.451344   -1.167074   -0.930920
H      -3.082710   -3.374046    0.748104
H      -4.014929   -0.870090    2.116156
