12

O      -0.039543    0.018808    0.004804
C      -0.018723    1.203443    0.009000
O      -1.168250    2.006611    0.029795
C      -0.684912    3.281520    0.029385
C       0.661582    3.307476    0.010789
O       1.105561    1.991520   -0.001915
C       1.094475    4.653673    0.011883
C      -0.076603    5.393529    0.032021
N      -1.181036    4.542297    0.043003
H       2.095379    5.050402    0.000101
H      -0.220577    6.460405    0.039539
H      -2.144831    4.824260    0.057876
