17

C      -0.123613    1.487119   -0.025105
C       0.094924   -0.002178    0.041826
O       1.149487   -0.554868    0.209111
O      -1.089492   -0.656094   -0.118730
C      -1.057954   -2.070318   -0.135449
C      -2.116267   -2.821475    0.718449
C      -2.392307   -3.781408   -0.479250
C      -1.668615   -2.757769   -1.375468
O      -1.688946   -2.494474   -2.539724
H       0.816547    2.001524    0.168595
H      -0.499366    1.758052   -1.016079
H      -0.879633    1.791234    0.703707
H      -0.038252   -2.420824    0.051364
H      -1.757095   -3.268449    1.645312
H      -2.972978   -2.177905    0.928353
H      -1.845386   -4.727100   -0.416199
H      -3.430875   -3.992143   -0.740958
