20

C      -0.018227    1.460402   -0.076975
C       0.006038   -0.061207   -0.060339
O       1.041553   -0.694689   -0.188231
N      -1.199173   -0.679740    0.125659
C      -2.518900   -0.054171    0.221336
C      -3.413162   -1.134353    0.879247
C      -2.706265   -2.453259    0.598937
C      -2.270367   -2.746247   -0.821819
C      -1.309135   -2.117267    0.159700
H       0.996929    1.808430   -0.264602
H      -0.683776    1.847090   -0.855566
H      -0.362736    1.864873    0.880944
H      -2.481106    0.864485    0.811178
H      -2.901413    0.213326   -0.773118
H      -3.458599   -0.976909    1.961832
H      -4.437202   -1.092064    0.496568
H      -2.895735   -3.286284    1.265427
H      -2.101293   -3.785310   -1.082096
H      -2.658463   -2.140352   -1.634457
H      -0.412418   -2.628854    0.477786
