22

C       0.006426    1.412893    0.480545
C       0.001217   -0.003399   -0.111711
C      -1.399557   -0.622417   -0.025707
C       0.512315   -0.037800   -1.567616
C       1.954420    0.386439   -1.713957
O       2.951175   -0.464617   -1.126393
C       2.962261   -0.294339   -2.548027
C       2.715146   -1.514825   -3.397411
H       1.010201    1.847288    0.500797
H      -0.638950    2.083961   -0.100033
H      -0.367512    1.405159    1.509613
H       0.687443   -0.623492    0.479775
H      -2.121908   -0.044212   -0.615003
H      -1.407519   -1.649627   -0.405665
H      -1.759156   -0.644797    1.008275
H       0.382446   -1.051455   -1.958512
H      -0.109015    0.623209   -2.189080
H       2.135447    1.446406   -1.522276
H       3.790177    0.326513   -2.900018
H       1.889779   -2.118995   -3.016537
H       2.491025   -1.223636   -4.429548
H       3.610978   -2.144548   -3.415691
