18

C       0.017684    1.485646    0.042184
C       0.061090   -0.008890   -0.043369
C       0.018816   -0.911582   -1.266716
N      -0.312441   -2.085831   -0.366830
C       0.984037   -2.247372    0.391945
C       0.739454   -0.895477    1.057883
C       1.326210   -0.346075    2.227188
C       1.843142    0.102470    3.218440
C      -0.728230   -1.045965    0.692762
H       0.931400    1.928629   -0.369463
H      -0.833756    1.884259   -0.520141
H      -0.071436    1.819654    1.079771
H      -0.840749   -0.692014   -1.907160
H       0.914876   -1.044497   -1.883854
H       0.896516   -3.073470    1.101588
H       1.870728   -2.386857   -0.236254
H       2.295004    0.495691    4.094910
H      -1.633281   -1.055533    1.284070
