16

C       0.038508    1.485964    0.046013
C      -0.096108   -0.025605   -0.102602
N       0.765650   -0.513426   -1.169263
C       0.857453   -1.860122   -1.410516
N       0.486172   -2.788402   -0.533852
N       0.823453   -3.935804   -1.198591
C       1.346242   -3.644687   -2.399338
N       1.387631   -2.339274   -2.580556
H       1.073188    1.766179    0.264239
H      -0.267322    2.003794   -0.870751
H      -0.598549    1.848241    0.857611
H       0.204089   -0.527417    0.822506
H      -1.149518   -0.300050   -0.274362
H       0.771314    0.033738   -2.017689
H       0.654578   -4.828971   -0.769106
H       1.678789   -4.396649   -3.099499
