23

C      -0.012371    1.579613    0.002607
C      -0.007202    0.049205   -0.020138
C       0.706064   -0.534878   -1.235284
C       0.812196   -2.063472   -1.203786
C       1.226338   -2.594949   -2.550327
C       1.170782   -1.856653   -3.659078
C       1.623378   -2.334829   -5.009336
C       0.635789   -0.445233   -3.599828
O      -0.020322   -0.128124   -2.391290
H       1.007741    1.977723    0.047965
H      -0.486440    1.973995   -0.899538
H      -0.556935    1.960033    0.872095
H       0.476574   -0.342726    0.883144
H      -1.037026   -0.329116   -0.016837
H       1.727984   -0.116936   -1.291792
H       1.539257   -2.363720   -0.437941
H      -0.151318   -2.496005   -0.896953
H       1.590560   -3.619065   -2.599256
H       2.029490   -3.348506   -4.958461
H       0.797363   -2.333690   -5.732431
H       2.400748   -1.679941   -5.424698
H       1.460249    0.268104   -3.793810
H      -0.103403   -0.289224   -4.396102
