20

C       0.900393   -0.505732   -0.835007
N      -0.121029   -0.013108    0.082638
C       0.052159    1.414409    0.331162
C      -1.490541   -0.295825   -0.366841
C      -1.691729   -1.695092   -0.737794
C      -1.925427   -2.837909   -1.029166
C      -2.512658    0.047495    0.763023
C      -2.292752   -0.633044    2.095479
O      -3.421940    0.806717    0.541583
H       1.886732   -0.310504   -0.403701
H       0.791192   -1.582293   -0.975106
H       0.859759   -0.019290   -1.827323
H      -0.066172    2.026478   -0.582283
H      -0.675328    1.770461    1.066149
H       1.053424    1.591190    0.733451
H      -1.782597    0.339030   -1.224227
H      -2.120567   -3.846663   -1.298933
H      -1.246885   -0.542324    2.398911
H      -2.961577   -0.206034    2.843029
H      -2.498103   -1.703527    1.987964
