16

C      -0.017806    1.504406    0.059916
C       0.025365    0.016440   -0.006948
C       0.247622   -1.001749   -1.160387
C       0.808881   -1.991821   -0.207054
C       0.604388   -1.008592    0.967781
C      -0.884157   -1.027723    0.634989
C      -2.037294   -0.910339    1.436721
C      -3.022873   -0.796897    2.120181
N      -0.662638   -2.018617   -0.522783
H       0.951327    1.945558   -0.199368
H      -0.770210    1.911749   -0.624586
H      -0.276873    1.831836    1.072104
H       0.328799   -0.897680   -2.235823
H       1.444436   -2.857024   -0.348909
H       1.091009   -0.858175    1.920979
H      -3.892204   -0.703504    2.722459
