21

C      -0.181745    1.548030   -0.031569
C       0.013716    0.036440    0.014029
C       1.187298   -0.597661   -0.831454
C       2.134981   -0.207172    0.352721
C       0.865995   -0.598528    1.190540
C       0.680033   -0.209563    2.633293
O       1.675548   -0.878894    3.398839
C       0.754666   -2.083130    0.805059
C       0.964001   -2.081597   -0.514162
H       0.742119    2.114936    0.110161
H      -0.602870    1.841833   -0.999749
H      -0.890849    1.870650    0.739459
H      -0.950384   -0.459443   -0.137261
H       1.382370   -0.300933   -1.862378
H       3.026655   -0.818755    0.498239
H       2.389346    0.855064    0.398754
H       0.763806    0.883339    2.742467
H      -0.333420   -0.494124    2.964132
H       1.561804   -0.631023    4.321049
H       0.556769   -2.896398    1.488425
H       0.974633   -2.900130   -1.220021
