21

C      -0.328647    1.382866    0.089681
C       0.454876    0.092190   -0.080631
O       1.234359   -0.269480    0.778987
C       0.220297   -0.709357   -1.334878
C      -0.493640   -0.027911   -2.490413
C       1.287550   -1.742784   -1.667919
C      -0.037133   -2.217128   -1.172235
C      -0.185751   -2.904987    0.162106
O       0.042835   -4.292987   -0.066526
H      -0.084964    2.095896   -0.705093
H      -1.406296    1.195923    0.026351
H      -0.085935    1.820234    1.058347
H       0.048926    0.859580   -2.834723
H      -0.571347   -0.710896   -3.341019
H      -1.510388    0.281498   -2.226708
H       1.538188   -1.874426   -2.714827
H       2.119922   -1.793664   -0.975313
H      -0.717244   -2.614061   -1.922216
H       0.526571   -2.490622    0.882929
H      -1.202440   -2.737622    0.555646
H       0.043800   -4.734000    0.788013
