23

C       0.868083    1.541173   -0.434736
O       1.091209    0.159560   -0.572018
C      -0.105091   -0.586590   -0.656532
C       0.223132   -2.046963   -0.769386
C       1.398631   -2.671493   -0.071223
C       1.323147   -2.741001   -1.573534
C       0.350691   -3.849883   -1.991971
C      -0.795949   -3.116932   -1.210131
C      -1.585368   -3.878840   -0.151657
H       0.316167    1.954426   -1.294172
H       0.299557    1.775026    0.479671
H       1.845159    2.027177   -0.376916
H      -0.733865   -0.397755    0.233565
H      -0.693721   -0.262538   -1.534290
H       2.109915   -1.952083    0.318120
H       1.290190   -3.573694    0.527073
H       2.082024   -2.290844   -2.201481
H       0.161774   -3.896382   -3.066800
H       0.605352   -4.856717   -1.641036
H      -1.494025   -2.675609   -1.930816
H      -0.926314   -4.331166    0.596305
H      -2.284252   -3.219669    0.375546
H      -2.170607   -4.685316   -0.607528
