18

C       0.019103    1.467936   -0.033813
C       0.015875    0.011535   -0.024429
C      -0.013895   -1.194422   -0.005769
C       0.023024   -2.634535   -0.024097
C       1.058144   -3.205810   -0.986215
O       2.377347   -2.806613   -0.670734
C      -0.239024   -3.384905    1.270967
C      -1.267185   -3.412592    0.176278
H       0.706818    1.875242    0.715790
H       0.323688    1.858999   -1.010941
H      -0.978844    1.865567    0.181983
H       1.044966   -4.299393   -0.929543
H       0.788987   -2.920238   -2.015553
H       2.370585   -1.843412   -0.618193
H       0.355114   -4.274741    1.448269
H      -0.449925   -2.796655    2.155865
H      -2.178152   -2.841634    0.309796
H      -1.386619   -4.325282   -0.398564
