16

C      -0.086651    1.480598   -0.037213
O       1.113268    0.676441    0.012945
C      -0.140077    0.021686   -0.004182
C      -0.505003   -0.992086    1.050307
C      -1.686075   -1.795883    0.476878
C      -2.020259   -1.211409   -0.897918
C      -0.485972   -1.027294   -1.069983
C      -0.277001   -2.123255    0.063155
H      -0.293289    2.057028    0.863720
H      -0.244413    2.014950   -0.973652
H      -0.285039   -0.970085    2.109181
H      -2.331221   -2.361616    1.137357
H      -2.416142   -1.980507   -1.566801
H      -2.642812   -0.311156   -0.958190
H      -0.010091   -0.994599   -2.047123
H       0.322385   -3.018166    0.131620
