19

C       0.078766    1.443038    0.059939
C       0.073385   -0.047528   -0.012368
N      -0.032650   -0.766045   -1.109910
C      -0.027275   -2.088682   -0.709407
C      -0.126131   -3.196871   -1.707602
C       0.091848   -2.162728    0.656412
C       0.201800   -3.286018    1.625065
O      -0.541819   -2.936476    2.794718
N       0.172288   -0.850929    1.085803
H       1.003077    1.828043    0.506175
H      -0.008213    1.840679   -0.951867
H      -0.758620    1.826185    0.655060
H       0.793665   -3.293166   -2.296719
H      -0.313002   -4.159978   -1.223427
H      -0.940021   -3.003594   -2.413438
H      -0.178519   -4.206116    1.158436
H       1.255191   -3.472467    1.895759
H      -0.353247   -3.592992    3.472394
H       0.154194   -0.574858    2.053785
