17

C      -0.092544    1.421444   -0.080495
O      -0.045873    0.001283   -0.025778
C      -1.277627   -0.601967    0.093156
C      -1.066048   -2.102467   -0.015564
O      -2.269461   -2.839398    0.252665
C      -3.249609   -2.330267    1.031675
O      -4.217821   -2.988825    1.291209
C      -3.114146   -0.883363    1.501789
O      -1.825794   -0.323141    1.371808
H       0.934354    1.761658   -0.222593
H      -0.706234    1.762384   -0.926513
H      -0.494024    1.841562    0.847028
H      -1.982903   -0.241661   -0.683919
H      -0.749839   -2.387101   -1.021381
H      -0.293548   -2.395304    0.702554
H      -3.866302   -0.301762    0.942654
H      -3.387847   -0.847414    2.557724
