13

N      -0.166946    1.398237    0.164845
C      -0.096013    0.192268   -0.170343
C      -1.185884   -0.811649    0.079096
N      -1.678815   -1.370502   -1.176378
C      -0.896644   -2.040868   -1.890211
O       0.418933   -2.390692   -1.639843
C       1.340319   -1.613884   -1.002631
O       2.405443   -2.049803   -0.715354
O       1.025950   -0.295295   -0.847535
H       0.675898    1.912095   -0.097018
H      -0.808152   -1.609621    0.736424
H      -1.998479   -0.300969    0.592879
H      -1.219802   -2.512323   -2.813632
