19

O      -0.754651    1.016682    0.498966
C       0.307641    0.857259   -0.046671
C       1.438387    1.850683    0.004229
C       1.600584    2.677518    1.293801
C       2.542563    3.831656    0.819732
C       2.792868    3.479121   -0.666414
C       3.601181    2.172831   -0.717859
O       2.669771    1.167805   -0.264372
C       1.410014    2.943838   -1.092898
H       0.530445   -0.041184   -0.662867
H       0.630642    3.035541    1.645782
H       2.043273    2.061700    2.079426
H       2.054925    4.806525    0.909379
H       3.472742    3.876749    1.392828
H       3.214287    4.283972   -1.270496
H       3.936118    1.924035   -1.733154
H       4.476125    2.187197   -0.057259
H       1.382601    2.526275   -2.102637
H       0.595752    3.659417   -0.960711
