14

O      -0.019554    0.316871    0.739663
C       0.041819    1.378122    0.213409
O      -1.003897    2.178041   -0.193514
C      -0.105252    3.231981   -0.681702
C      -0.046873    4.442754    0.238828
C       0.885736    3.960811    1.368101
O       1.821442    3.080563    0.733427
C       1.124666    2.388203   -0.264965
H      -0.296482    3.434184   -1.734431
H       0.404486    5.280875   -0.301361
H      -1.034045    4.745220    0.594424
H       1.456152    4.758563    1.846383
H       0.318911    3.422208    2.140308
H       1.824267    2.010709   -1.010915
