11

O       0.073979    0.021680    0.002543
C      -0.031001    1.205082    0.010330
C      -1.243739    2.127584    0.032031
N      -0.707642    3.481487    0.031532
C       0.559748    3.344353    0.012573
O       1.072771    2.058933   -0.001013
C       1.523515    4.385181    0.004719
C       2.348564    5.258028   -0.002114
H      -1.881365    1.949935   -0.841019
H      -1.856661    1.940823    0.920731
H       3.074041    6.034877   -0.008085
