19

C       0.092413    1.522012   -0.119039
C       1.358336    0.727862    0.040905
C      -0.012749    0.038135    0.067015
C       0.324235   -0.709432   -1.237434
C      -0.504883   -0.550671   -2.470798
C       0.041965   -0.062605   -3.583184
C       1.467246    0.431971   -3.608075
O       1.903192    0.924783   -2.351077
C       1.705064    0.032048   -1.274951
H      -0.185492    2.116445    0.745123
H      -0.138339    1.978612   -1.076317
H       2.052033    0.900983    0.853722
H      -0.524171   -0.404228    0.913150
H       0.480422   -1.773893   -1.027420
H      -1.544156   -0.870534   -2.445879
H      -0.521675    0.006625   -4.509557
H       2.143959   -0.362008   -3.973796
H       1.566349    1.272548   -4.303001
H       2.553432   -0.661072   -1.192400
