14

O       0.299438    0.854521    0.811838
C      -0.162142    0.304262   -0.414503
C      -1.442110   -0.359592   -0.204256
C      -2.500856   -0.912241   -0.058357
C      -3.772604   -1.620618    0.140498
O      -3.584574   -2.984369    0.507137
C      -4.626376   -0.904481    1.100855
C      -5.324758   -0.345831    1.902499
H       1.141044    1.286671    0.633721
H      -0.290693    1.084472   -1.182486
H       0.555216   -0.427059   -0.821510
H      -4.298791   -1.670415   -0.821783
H      -3.110428   -2.990114    1.347019
H      -5.942347    0.154145    2.607344
