18

O       0.649882    0.581908   -1.018744
C       0.001882   -0.267342   -0.110441
C       0.210218   -0.064605    1.420791
C      -1.287227   -0.321928    1.597627
C      -1.540773   -0.135708    0.096542
N      -1.789659   -1.407088    2.428569
C      -2.181270   -0.003042    2.746277
C      -1.675496    0.573885    3.959698
C      -1.249649    1.096174    4.955705
H       0.487587    1.491993   -0.747743
H       0.269116   -1.282755   -0.413858
H       0.892002   -0.740875    1.938648
H       0.478607    0.970420    1.662174
H      -1.894076    0.872828   -0.146840
H      -2.183269   -0.864463   -0.406068
H      -2.575261   -1.868227    1.972739
H      -3.197047    0.292646    2.489315
H      -0.874052    1.541907    5.843210
