12

C       0.028164   -1.149508    0.234689
C      -0.002151    0.036451    0.045527
C      -0.012072    1.474756   -0.198866
C       1.382780    2.077419   -0.228677
C       1.616834    3.476276    0.145552
O       1.964877    2.406454    1.028028
H       0.048230   -2.196201    0.411638
H      -0.506259    1.681304   -1.157953
H      -0.595764    1.985172    0.576354
H       2.070247    1.605840   -0.931385
H       2.453938    4.021696   -0.287144
H       0.778586    4.092916    0.468511
