18

C      -0.119598    1.504835   -0.011139
N       0.080065    0.054632   -0.004902
C       0.744102   -0.495901   -1.182267
C       2.169639   -0.002072   -1.447405
C       0.540172   -2.030583   -1.285058
O      -0.310025   -1.851068   -2.461338
C      -0.166208   -0.485386   -2.409721
N      -0.631398    0.415710   -3.148235
H       0.808447    2.098732   -0.005589
H      -0.690932    1.780714   -0.900435
H      -0.702303    1.780591    0.872654
H       0.608031   -0.214394    0.820573
H       2.812751   -0.214888   -0.585569
H       2.603201   -0.488726   -2.326514
H       2.178026    1.075618   -1.628038
H       1.422654   -2.626038   -1.531768
H      -0.023006   -2.472436   -0.461014
H      -1.222082    0.026530   -3.885704
