12

F      -0.300548    0.122054    0.877841
C      -0.128957    1.333831    0.328191
F       1.168998    1.485825    0.069567
F      -0.796571    1.360926   -0.834246
C      -0.659704    2.432006    1.245248
O       0.014723    2.437803    2.481357
C      -0.477335    1.628505    3.456121
N       0.146569    1.523871    4.542689
H      -0.478523    3.396644    0.766938
H      -1.740819    2.287336    1.358651
H      -1.421257    1.140887    3.181947
H      -0.355296    0.907610    5.178313
