14

C      -0.212969    1.433873   -0.104015
C       0.241173    0.004407   -0.034827
O       1.182405   -0.441189    0.546494
O      -0.628657   -0.791514   -0.777850
C      -0.367853   -2.114245   -0.815214
N      -1.001256   -3.050405   -0.200592
C      -0.379623   -4.211258   -0.657052
C       0.598936   -3.882973   -1.529521
O       0.613460   -2.514733   -1.645844
H       0.467525    2.057956    0.473042
H      -0.239061    1.765311   -1.145782
H      -1.229482    1.517684    0.290353
H      -0.688072   -5.187067   -0.318471
H       1.323276   -4.421530   -2.114664
