21

C      -0.075773    1.544525    0.049261
C       0.051534    0.025664   -0.021941
C       0.793127   -0.462709   -1.260076
O       1.264016    0.318469   -2.065087
C       0.917431   -1.935063   -1.440073
C       1.499864   -2.490831   -2.511525
C       1.453287   -3.992555   -2.482478
C       1.018268   -4.304550   -1.026491
C       0.369764   -2.997199   -0.501220
H       0.909368    2.017436    0.045789
H      -0.620599    1.930623   -0.816157
H      -0.605375    1.847651    0.956877
H       0.575773   -0.368999    0.860186
H      -0.934490   -0.459511   -0.000680
H       1.923102   -1.912861   -3.324828
H       0.724652   -4.360416   -3.219936
H       2.410395   -4.454027   -2.750285
H       0.349193   -5.165500   -0.957917
H       1.904190   -4.536304   -0.427129
H       0.610205   -2.812298    0.550979
H      -0.726958   -3.037488   -0.561427
