15

O       0.345499    1.146079    0.479353
C       0.035682   -0.015281   -0.270210
C      -1.386637   -0.497263   -0.032200
C      -1.654421   -1.905238    0.358866
N      -1.803032   -0.818210    1.333607
C      -2.431419    0.252980   -0.826823
F      -2.219285    0.108830   -2.146887
F      -3.673302   -0.145918   -0.566460
F      -2.363903    1.581084   -0.568152
H      -0.276696    1.835128    0.221573
H       0.199231    0.134526   -1.346909
H       0.736253   -0.785432    0.066684
H      -2.585476   -2.379083    0.064869
H      -0.798334   -2.571183    0.425164
H      -0.994143   -0.747826    1.946972
