22

C      -0.033692    1.574685   -0.011198
C       0.024302    0.045425   -0.008630
C       0.719332   -0.513937   -1.259733
C       0.841505   -2.036333   -1.172798
O       1.516262   -2.446087    0.002852
C       0.852960   -2.033539    1.193638
C       1.639681   -2.608503    2.362291
C       0.728096   -0.505111    1.242831
H       0.974605    2.005197   -0.015979
H      -0.559706    1.951030   -0.895312
H      -0.552511    1.954591    0.875648
H      -1.008344   -0.336420   -0.004582
H       0.168185   -0.237322   -2.166973
H       1.724549   -0.080392   -1.345191
H      -0.163965   -2.492813   -1.209283
H       1.418840   -2.437559   -2.011405
H      -0.165962   -2.464527    1.195595
H       2.655599   -2.201281    2.374411
H       1.155089   -2.362029    3.311907
H       1.708807   -3.696305    2.277147
H       1.736659   -0.074950    1.315993
H       0.184429   -0.209324    2.148581
