20

C      -0.241210    1.486641   -0.017983
C      -0.053133   -0.022369    0.025541
C       0.881351   -0.615352   -1.068471
C       1.939314   -1.229245   -0.116107
C       0.982788   -1.926244    0.921562
N       0.637736   -0.446229    1.287585
C       2.167608   -0.244392    0.943233
C       3.302791    0.266796   -0.018039
O       3.318174   -1.096697   -0.611511
H       0.722161    2.006894   -0.004836
H      -0.772243    1.783915   -0.927825
H      -0.818624    1.823345    0.847826
H      -1.036015   -0.504954    0.024281
H       0.407580   -1.383189   -1.685911
H       1.296282    0.141486   -1.737346
H       0.118208   -2.498850    0.571746
H       1.478904   -2.418203    1.756440
H       2.679337   -0.668403    1.807307
H       3.052073    1.020455   -0.767809
H       4.256136    0.499203    0.461732
