22

C      -0.191274    1.705658    0.377948
C       0.028160    0.234959    0.008119
C       0.827069    0.106357   -1.302165
C       0.889247   -1.268941   -1.943762
O       1.382891    1.059690   -1.797262
C       0.703343   -0.563568    1.132971
C       2.133610   -0.181617    1.463307
C      -0.165370   -1.088193    2.218320
N       0.432867   -2.013952    1.234893
H       0.759760    2.231607    0.482064
H      -0.756450    2.219409   -0.403881
H      -0.744798    1.784745    1.317897
H      -0.948863   -0.238696   -0.168070
H      -0.120138   -1.626636   -2.178587
H       1.478498   -1.217375   -2.860037
H       1.335183   -1.995217   -1.256219
H       2.194176    0.844377    1.839193
H       2.530145   -0.854772    2.226511
H       2.781049   -0.251713    0.582744
H       0.224421   -1.178369    3.228613
H      -1.233671   -0.893813    2.163439
H      -0.278791   -2.289582    0.561963
