16

C       0.081393    1.565169   -0.249618
C      -0.024713    0.071953    0.061457
N       0.487803   -0.780506   -1.001876
C       1.806489   -1.126374   -0.782693
O       2.592928   -1.588695   -1.558454
O       2.102028   -0.866769    0.531340
C       0.903603   -0.435765    1.208246
C       1.217131    0.529029    2.247239
C       1.450538    1.310746    3.128217
H       1.120485    1.856226   -0.429448
H      -0.504540    1.804175   -1.142919
H      -0.304280    2.161297    0.581148
H      -1.061138   -0.187464    0.298845
H       0.216554   -0.633707   -1.961845
H       0.445953   -1.324191    1.662900
H       1.668364    2.001081    3.905945
