16

O       0.035377    1.454295    0.117261
C       0.018958    0.083335   -0.222894
C      -1.377797   -0.519435   -0.081521
C      -1.459708   -2.098426   -0.139212
N      -1.922668   -2.007362    1.263587
N      -2.359213   -2.618236    2.375176
N      -2.612143   -1.631355    3.205498
C      -2.352127   -0.413261    2.629566
C      -1.898480   -0.669927    1.353758
H      -0.113273    1.523956    1.066529
H       0.342080    0.023068   -1.267673
H       0.733708   -0.496959    0.381078
H      -2.074752   -0.018077   -0.756935
H      -2.207839   -2.513214   -0.816482
H      -0.507658   -2.621982   -0.251144
H      -2.518281    0.502999    3.170243
