19

O       0.719307    0.094214    0.824397
C      -0.131487    0.336788   -0.274831
C      -1.504044   -0.396195   -0.178477
C      -1.258505   -1.928598    0.007309
O      -2.366786   -2.614963    0.556749
C      -2.336050    0.155572    0.998489
O      -1.687250   -0.213542    2.225527
C      -2.256575   -0.124747   -1.401343
C      -2.857897    0.124809   -2.412122
H       0.185128    0.184857    1.624906
H      -0.327884    1.412099   -0.412161
H       0.397080   -0.012140   -1.167980
H      -1.062613   -2.372886   -0.972029
H      -0.363190   -2.049121    0.625253
H      -2.359756   -2.426475    1.501485
H      -2.414402    1.246983    0.910989
H      -3.342160   -0.274269    0.955643
H      -2.161764    0.195983    2.955523
H      -3.391366    0.326929   -3.307920
