19

C      -0.030137    1.475627    0.073964
C       1.488237    1.909854    0.059577
C       2.064064    1.599365   -1.322462
C       2.850157    0.358120   -1.895927
C       3.027241   -0.957183   -1.206876
C       1.842933   -1.503693   -0.869276
C       0.806987   -0.476337   -1.095616
C      -0.002756   -0.020978   -0.122192
C       1.369589    0.513082   -2.087949
H      -0.504545    1.742484    1.022619
H      -0.556077    2.020198   -0.718053
H       1.589245    2.980920    0.269348
H       2.005691    1.378794    0.864175
H       2.305975    2.487105   -1.902646
H       3.549977    0.627229   -2.680470
H       3.998341   -1.390971   -1.000509
H       1.699723   -2.406432   -0.287315
H      -0.259996   -0.656387    0.721924
H       0.883489    0.682344   -3.043452
