19

C       0.214536    1.310491   -0.003510
C       0.011873   -0.185468   -0.091586
O       0.944650   -0.949287   -0.260564
C      -1.411538   -0.719693    0.046548
O      -2.282011    0.205289    0.663441
C      -1.908701   -1.399100   -1.275943
C      -1.522261   -2.784754   -0.700598
C      -1.446676   -2.146518    0.712165
O      -0.441585   -2.531185    1.594345
H       1.269057    1.545401   -0.149875
H      -0.386415    1.830282   -0.759543
H      -0.128053    1.670465    0.971184
H      -2.580597    0.841020    0.004821
H      -2.990037   -1.262564   -1.361920
H      -1.428016   -1.089778   -2.206225
H      -2.226100   -3.606556   -0.843811
H      -0.530014   -3.093511   -1.035146
H      -2.396668   -2.227606    1.247105
H       0.395436   -2.403552    1.126367
