23

C      -0.012862    1.501995   -0.160497
C      -0.233193    0.037845   -0.498911
O       1.033676   -0.572935   -0.688539
C       0.955182   -1.926333   -0.998431
C       0.702431   -2.346932   -2.427372
C       2.077871   -2.513160   -1.799187
C       3.239584   -1.656571   -2.254613
C       3.894707   -2.190799   -3.523062
O       4.984794   -1.338112   -3.842034
H       0.585142    1.600265    0.749907
H       0.516355    2.008327   -0.972857
H      -0.971651    2.005107   -0.003390
H      -0.776570   -0.470850    0.314480
H      -0.843017   -0.067895   -1.409643
H       0.518530   -2.538030   -0.206585
H       0.094764   -3.223307   -2.625267
H       0.594006   -1.544976   -3.150833
H       2.347882   -3.531137   -1.526981
H       2.903176   -0.630678   -2.427672
H       4.000132   -1.605036   -1.466114
H       4.235016   -3.227187   -3.359552
H       3.154960   -2.218524   -4.339206
H       5.396435   -1.665207   -4.646935
