16

O       0.011667    0.171264   -0.542442
C      -0.062718    1.261775   -0.062882
C      -1.331830    2.039567    0.317874
C      -0.832092    3.386504    0.815015
C       0.706630    3.277297    0.769178
O       1.052451    2.002121    0.234519
C       0.698722    4.458107   -0.199256
C      -0.162693    4.198178   -1.364354
N      -0.826445    4.589494   -0.109030
H      -1.998343    2.097171   -0.546217
H      -1.857649    1.476199    1.093697
H      -1.255670    3.691817    1.770524
H       1.261193    3.436518    1.693753
H       1.350316    5.321656   -0.126619
H      -0.217810    4.981813   -2.113238
H      -0.269134    3.196239   -1.769424
