16

C      -0.174514    1.519555   -0.006623
C      -0.046408    0.033049   -0.021050
C       0.097535   -0.801670   -1.044779
C       0.195860   -2.219131   -0.565762
O       0.016759   -2.148157    0.849318
C      -0.052488   -0.783811    1.264937
C       1.059990   -0.433155    2.157854
C       1.965020   -0.125217    2.886481
H       0.621944    1.971806    0.595373
H      -0.124176    1.933867   -1.016389
H      -1.125693    1.830846    0.443588
H       0.148314   -0.525884   -2.091091
H      -0.581849   -2.869965   -0.992020
H       1.169558   -2.676619   -0.803596
H      -0.994392   -0.638417    1.819143
H       2.765664    0.134720    3.534153
