17

N       0.093114    1.345353   -0.225421
C      -0.006576   -0.012104   -0.069253
C      -1.181717   -0.686737   -0.083557
C      -1.244127   -2.134256    0.030000
O      -2.280411   -2.754039    0.213012
C       0.058195   -2.875041   -0.105230
C       0.851734   -2.664082   -1.359506
N       1.343295   -2.161182   -0.088645
C       1.316463   -0.722240    0.134871
H       0.928434    1.803067    0.103942
H      -0.748502    1.893146   -0.132673
H      -2.130454   -0.162061   -0.147960
H       0.059520   -3.854949    0.363041
H       1.416942   -3.491141   -1.779842
H       0.447302   -1.960015   -2.083639
H       2.075194   -0.264528   -0.512580
H       1.639708   -0.536950    1.169589
