21

C       0.048674    1.468773    0.087893
O       0.113051    0.060235   -0.056728
C       0.693163   -0.608066    1.056374
C       0.102823   -2.031661    1.132580
C       1.200983   -2.937464    0.618919
C       0.952327   -4.390940    0.369633
C       2.345849   -2.270481    0.465490
C       2.239767   -0.810893    0.828292
O       2.770551    0.064695   -0.152708
H       1.045662    1.914217    0.186710
H      -0.433724    1.859386   -0.812112
H      -0.556773    1.748794    0.963037
H       0.492462   -0.030685    1.967067
H      -0.173574   -2.294206    2.162419
H      -0.814652   -2.092216    0.535721
H       0.152908   -4.530917   -0.369200
H       1.849069   -4.899181    0.005626
H       0.619864   -4.898544    1.284359
H       3.281710   -2.698053    0.121523
H       2.798991   -0.583799    1.744447
H       2.155032    0.015993   -0.895722
