17

C      -0.421328    1.411290    0.255323
C      -0.016152   -0.040348   -0.017948
C       0.926505   -0.283265   -1.249257
C       2.156159   -0.526452   -0.312761
O       2.934126   -1.683686   -0.456919
C       3.088500    0.675308   -0.209620
O       2.800640    1.808894   -0.494250
C       1.111367   -0.613540    0.839678
O       1.176034   -1.232195    1.863175
H       0.440325    2.079640    0.199401
H      -1.152424    1.736874   -0.490954
H      -0.880442    1.503562    1.243917
H      -0.898927   -0.687119    0.017464
H       0.682087   -1.183835   -1.812942
H       1.047738    0.571899   -1.915441
H       2.756320   -2.249088    0.306551
H       4.094860    0.388530    0.162162
