18

O      -0.072323    1.429159   -0.052674
C       0.023000    0.017296    0.052490
C      -1.396511   -0.538595   -0.039072
C      -1.424541   -2.035717    0.028834
C      -2.640968   -3.023510   -0.013020
C      -1.377427   -3.938481   -0.037374
N      -0.695182   -2.946395   -0.979451
C      -0.845756   -3.018677    1.076756
O      -0.330940   -3.037937    2.147019
H       0.813937    1.794994    0.019305
H       0.636587   -0.410583   -0.753912
H       0.474058   -0.288801    1.008382
H      -1.995196   -0.131238    0.784017
H      -1.859269   -0.188727   -0.969952
H      -3.324451   -3.069384    0.840891
H      -3.178674   -3.003399   -0.965947
H      -1.307290   -5.014721   -0.175660
H      -1.245241   -2.929986   -1.845947
