22

C      -0.105808    1.559428    0.147178
C       0.195204    0.094134   -0.159624
N       0.719620   -0.566558    1.034605
C      -0.213337   -1.255082    1.954264
C      -1.620249   -1.340737    1.678540
C      -2.806093   -1.388674    1.475409
C       0.798795   -2.021428    1.130026
C       0.328389   -2.914978   -0.002307
C       2.046801   -2.520113    1.834761
H       0.784009    2.063730    0.534124
H      -0.440533    2.080131   -0.755535
H      -0.898137    1.640316    0.897737
H      -0.708004   -0.385140   -0.561902
H       0.972381    0.023052   -0.929765
H       0.017461   -1.088057    3.005310
H      -3.852289   -1.439533    1.300659
H      -0.646067   -2.622958   -0.394407
H       1.054279   -2.903684   -0.823318
H       0.247180   -3.948235    0.350537
H       1.875984   -3.503122    2.287188
H       2.874380   -2.617235    1.122534
H       2.355401   -1.820115    2.614579
