15

C       0.102321    1.404535    0.362774
O       1.502764    1.459855    0.007205
C       1.453431    0.151577   -0.610023
C       2.229714   -0.909730    0.160911
C       1.288572   -1.204115    1.340267
O      -0.034066   -1.065850    0.813532
C      -0.016908   -0.044566   -0.158389
H      -0.066492    1.531787    1.438222
H      -0.487333    2.145427   -0.191721
H       1.683352    0.197269   -1.678619
H       2.356472   -1.799180   -0.465402
H       3.214013   -0.552872    0.472530
H       1.378640   -2.215604    1.742855
H       1.458146   -0.487885    2.156625
H      -0.800622   -0.248853   -0.888768
