15

O       0.447716    1.348777    0.241202
C       0.153805    0.013578    0.027841
C      -1.276310   -0.563861    0.066011
C      -2.117849   -0.270219   -1.119543
C      -2.090714    0.975103   -1.947558
O      -1.265605    1.858828   -1.885761
N      -1.044689   -1.326823   -1.232219
C       0.225699   -0.616615   -1.375828
N       0.982118   -0.661917   -2.373188
H      -0.033630    1.843463   -0.442246
H       0.774001   -0.571775    0.716855
H      -1.718004   -1.065284    0.920583
H      -3.094718   -0.748337   -1.125186
H      -2.924239    1.047044   -2.673984
H       1.817020   -0.094053   -2.210906
