14

O       0.099183    1.441199   -0.270226
C       0.045704    0.069158   -0.060170
C       0.619738   -0.689913   -1.186869
N       1.054163   -1.349497   -2.030842
C       0.786861   -0.271552    1.275105
O       1.104172    0.645264    1.993460
N       0.970773   -1.608389    1.509251
C       1.535626   -2.224266    2.635649
N       1.862050   -1.597497    3.682121
H       0.526771    1.793754    0.532918
H      -0.996961   -0.273333    0.057834
H       0.746983   -2.225949    0.741906
H       1.635883   -3.302519    2.466300
H       2.249305   -2.242925    4.368732
