22

C       2.184713   -2.194174    0.951259
N       1.343092   -1.212330    0.281998
C      -0.061603   -1.150461    0.676788
C       0.865621   -0.030519    1.004998
C       1.274310    0.382400    2.407515
C       2.703443    0.935469    2.416672
C       0.274989    1.350795    3.099338
O       0.262998    0.553340    4.298702
C       0.976456   -0.511222    3.643624
H       1.962569   -2.353008    2.017631
H       2.066344   -3.155618    0.441123
H       3.234143   -1.896138    0.860520
H      -0.782251   -1.053153   -0.131814
H      -0.388903   -1.795583    1.490105
H       0.818485    0.842677    0.350549
H       2.810169    1.746544    1.687998
H       2.956899    1.332157    3.404977
H       3.433493    0.160732    2.163749
H       0.631326    2.371558    3.282852
H      -0.715487    1.392118    2.625846
H       0.325702   -1.375186    3.464025
H       1.851377   -0.840554    4.217571
