19

C       0.006245    1.502776   -0.121447
C      -0.106916   -0.014382    0.032001
O       0.403624   -0.701434   -1.111747
C       0.580080   -0.507835    1.279424
N       2.029033   -0.807525    1.332040
C       1.029954   -1.859444    1.668920
C       0.512774   -1.622331    3.123391
N       1.194221   -0.432317    3.689764
C       0.064127   -0.265099    2.743759
H       1.058776    1.804728   -0.180909
H      -0.513050    1.836795   -1.024726
H      -0.432957    2.017372    0.738221
H      -1.170238   -0.285966    0.093722
H       1.046083   -0.126313   -1.538905
H       2.282484   -1.009027    0.362019
H       0.982641   -2.789619    1.118561
H       0.039802   -2.363796    3.753663
H       0.801390   -0.301222    4.623351
H      -0.833488    0.277720    3.012317
