16

C      -0.030761    1.492212    0.042562
C      -0.008230   -0.010662   -0.072112
C       0.951820   -0.732147   -0.945185
C       0.537835   -1.990293   -1.157118
C      -0.677713   -2.215003   -0.298665
O      -0.162658   -2.205614    1.107895
C      -0.493166   -0.843132    1.186291
C      -1.297679   -0.806796   -0.062688
H       0.934501    1.880332    0.385609
H      -0.258746    1.963587   -0.920435
H      -0.791233    1.823072    0.758271
H       1.891679   -0.302171   -1.272272
H       1.077859   -2.778590   -1.664494
H      -1.305178   -3.088418   -0.466425
H      -0.584382   -0.394466    2.168819
H      -2.285712   -0.438153   -0.311051
