17

C      -0.106122    1.507927   -0.051127
N      -0.026504    0.065020    0.082295
C      -1.261752   -0.698276    0.358129
C      -0.431599   -1.600745    1.268972
O      -0.550152   -2.667531    1.777440
C       0.738533   -0.553425    1.200198
C       2.126153   -1.080923    0.845324
C       0.759170    0.257173    2.426793
N       0.745470    0.929235    3.368478
H       0.895708    1.920815   -0.199828
H      -0.701776    1.748323   -0.936568
H      -0.559410    2.004363    0.822622
H      -2.024547   -0.150288    0.937344
H      -1.736548   -1.157935   -0.514423
H       2.060283   -1.688037   -0.059870
H       2.820288   -0.254807    0.667102
H       2.516512   -1.692333    1.663293
