18

O       0.008464   -0.075527    0.045292
C      -0.015068    1.137739    0.041494
C      -1.295695    1.966573    0.078235
C      -1.143402    3.314693    0.771002
C      -2.391167    4.126121    1.029103
C      -1.682087    3.479275    2.187119
C       0.123164    4.001438    0.414484
C       1.180544    3.285420    0.023563
N       1.135507    1.889383   -0.071967
H      -1.582255    2.125925   -0.971812
H      -2.074598    1.351169    0.532820
H      -2.322665    5.203843    0.921951
H      -3.339908    3.708024    0.708641
H      -2.140567    2.612216    2.651399
H      -1.125468    4.111691    2.869623
H       0.195848    5.079771    0.490431
H       2.134090    3.728520   -0.236451
H       1.988194    1.362373   -0.183437
