17

O       0.119928    1.323600   -0.126330
C       0.010832   -0.044083   -0.019096
C      -0.373394   -0.725187    1.238935
C      -1.381938   -0.728750    0.079648
C      -2.540378    0.178581    0.173800
O      -2.472863    1.264777    0.723309
C      -3.827981   -0.316260   -0.498738
C      -4.950249    0.601704   -0.423408
C      -5.884632    1.352993   -0.365586
H      -0.644352    1.710152    0.335585
H       0.715481   -0.541612   -0.677689
H       0.076876   -1.678665    1.491537
H      -0.640692   -0.094679    2.080787
H      -1.527429   -1.658220   -0.459327
H      -3.582257   -0.546585   -1.545271
H      -4.084720   -1.284736   -0.046565
H      -6.705687    2.024089   -0.311317
