14

C      -0.016707    1.340130   -0.051005
C       1.295996    2.106744    0.079015
N       2.092217    1.906976    1.275101
C       2.281102    0.800158    1.846422
O       1.779904   -0.448632    1.619664
C       0.446787   -0.620156    1.144611
O       0.178560   -0.066693   -0.093914
H      -0.692865    1.596066    0.779999
H      -0.507303    1.612275   -0.990485
H       1.926316    1.855434   -0.785753
H       1.071021    3.177333   -0.000968
H       3.006329    0.742329    2.658570
H       0.327317   -1.700733    1.054476
H      -0.238351   -0.213604    1.906650
