22

C      -1.768370    1.421988   -1.265907
C      -1.581059    0.001740   -0.682097
C      -0.783250   -0.840489   -1.679205
C       0.675507   -1.136259   -1.586929
N      -0.312644   -2.207365   -1.465989
C      -0.473815   -2.852587   -0.172699
C      -1.007658    0.185333    0.729204
C      -1.988399   -0.002645    1.872582
O       0.137676    0.526673    0.924928
H      -0.798361    1.917289   -1.359378
H      -2.233305    1.369970   -2.254647
H      -2.407760    2.037938   -0.625533
H      -2.575009   -0.454739   -0.584697
H      -1.193690   -0.711739   -2.681702
H       1.285761   -1.157168   -2.486946
H       1.186156   -0.802430   -0.688921
H      -0.242579   -2.218071    0.695522
H      -1.500706   -3.222061   -0.074962
H       0.195102   -3.718381   -0.130774
H      -2.881953    0.612218    1.714607
H      -2.325858   -1.044855    1.905973
H      -1.516989    0.262337    2.819571
