20

O       0.508585    0.868097   -0.910650
C       0.090799   -0.207354   -0.102720
C       0.185218   -0.071053    1.441119
C      -1.274592   -0.600079    1.575906
C      -2.294769    0.388916    2.155276
C      -2.480533    1.439800    1.042646
C      -2.412128    0.619878   -0.264565
C      -1.433184   -0.536364    0.014269
H       0.120920    1.676303   -0.559355
H       0.650793   -1.071417   -0.470941
H       0.967457   -0.657923    1.928800
H       0.297336    0.970340    1.764544
H      -1.339248   -1.592822    2.024532
H      -3.245904   -0.126107    2.338481
H      -1.972460    0.825127    3.106899
H      -3.412183    2.004269    1.140180
H      -1.666781    2.175968    1.081387
H      -3.401251    0.207290   -0.490825
H      -2.112105    1.215981   -1.132542
H      -1.729574   -1.451380   -0.503010
