17

C      -0.031028    1.581200   -0.006992
C       0.013686    0.052516   -0.069061
C      -1.350623   -0.594222    0.109421
C      -1.359940   -2.136463    0.050705
N      -2.381056   -2.424564    1.038418
C      -2.513070   -1.383561    1.936041
O      -3.085502   -1.384012    2.989345
O      -1.876141   -0.290521    1.417245
H       0.969465    2.005893   -0.127887
H      -0.666893    1.990932   -0.799308
H      -0.431892    1.916676    0.952912
H       0.417025   -0.277153   -1.035631
H       0.684976   -0.339272    0.704686
H      -2.059395   -0.190582   -0.626570
H      -1.627480   -2.504505   -0.943704
H      -0.378269   -2.551490    0.323350
H      -2.536028   -3.353756    1.394296
