19

O       0.816192    0.323772    1.658116
C       0.126378   -0.045439    0.485709
C       0.604712    0.560360   -0.808397
C       0.937926   -0.878928   -0.460116
C      -1.329010   -0.355530    0.742958
C      -2.355824    0.820878    0.988222
C      -3.235706    0.207534   -0.108763
O      -2.471269    0.207986   -1.318302
C      -2.254755   -0.856286   -0.381159
H       0.549336    1.222152    1.882490
H      -0.124597    0.752323   -1.585083
H       1.412274    1.280271   -0.732238
H       1.953769   -1.100204   -0.154236
H       0.443221   -1.669879   -1.012986
H      -1.380182   -1.052618    1.586262
H      -2.801215    0.795637    1.984814
H      -2.004349    1.831486    0.763586
H      -4.314571    0.212494   -0.208604
H      -2.387472   -1.866778   -0.750651
