14

N      -0.238610    1.427478   -0.010310
C      -0.009922    0.020845   -0.016664
C      -1.081235   -0.854984   -0.095067
O      -2.389321   -0.578258   -0.171305
N      -0.626457   -2.127624   -0.085566
C       0.768044   -2.103615    0.000326
C       1.160586   -0.776050    0.043616
C       1.524268   -3.287606    0.029586
N       2.137631   -4.273340    0.052955
H       0.210658    1.890502   -0.794277
H       0.111097    1.866954    0.835503
H      -2.439062    0.391402   -0.160239
H      -1.197245   -2.954621   -0.132487
H       2.182195   -0.435355    0.111214
