18

C      -0.292959    1.643256   -0.240046
C       0.008542    0.170016   -0.037267
C       0.754431   -0.591766   -1.204772
C       1.876988   -0.787585   -0.198474
C       3.078269   -1.178378    0.350055
N       4.180569   -1.832901   -0.216521
N       3.118147   -0.743777    1.655715
C       1.980147   -0.104373    1.905675
N       1.207105   -0.122986    0.797214
H       0.589968    2.173241   -0.609167
H      -1.101772    1.763275   -0.968096
H      -0.610387    2.112442    0.696552
H      -0.872386   -0.364761    0.331154
H       0.244272   -1.494423   -1.553672
H       0.982748    0.040804   -2.068152
H       3.917468   -2.614034   -0.803726
H       4.801528   -2.153417    0.516491
H       1.710999    0.356824    2.842316
