16

O       0.205997    1.337724   -0.062809
C       0.039349   -0.044353   -0.060662
C      -0.478449   -0.673847    1.225986
O      -0.765588    0.264335    2.230628
C      -2.166166    0.532292    2.333117
C      -2.703359    1.054512    1.011014
O      -2.527024    0.109562   -0.039741
C      -1.354155   -0.644183   -0.007106
H       0.231642    1.606413    0.866798
H       0.794229   -0.580042   -0.632341
H      -0.071116   -1.606609    1.609381
H      -2.700676   -0.380591    2.631474
H      -2.280347    1.283256    3.119430
H      -3.781018    1.233025    1.083371
H      -2.206738    1.999096    0.755520
H      -1.501187   -1.581784   -0.534764
