24

C      -0.054652    1.569355    0.125121
C       0.017576    0.037231    0.037976
C       0.839159   -0.519577    1.210059
C      -1.384329   -0.592642   -0.036918
C      -2.230421   -0.127731   -1.254859
C      -3.145290   -1.324400   -1.645137
C      -2.847068   -2.430975   -0.609076
C      -1.415943   -2.130652   -0.143850
H       0.948319    2.008063    0.156408
H      -0.581609    2.003788   -0.729246
H      -0.580211    1.882791    1.035643
H       0.540929   -0.223540   -0.895013
H       0.340150   -0.320680    2.166569
H       0.987505   -1.600128    1.129957
H       1.827958   -0.050392    1.251346
H      -1.923365   -0.315999    0.882421
H      -2.807077    0.772337   -1.025434
H      -1.568828    0.132398   -2.089323
H      -4.204275   -1.051986   -1.661272
H      -2.899080   -1.675114   -2.652645
H      -3.531929   -2.344993    0.243483
H      -2.967985   -3.439172   -1.016058
H      -0.694200   -2.463389   -0.903533
H      -1.158526   -2.634354    0.791981
