19

C      -0.085499    1.599935   -0.026366
C       0.023703    0.093622    0.044066
O      -1.137396   -0.579218   -0.394048
C       1.298344   -0.659131   -0.271379
O       2.525740    0.026884   -0.147836
C       2.930985    0.073795    1.205755
C       2.302546    1.094189    2.117184
C       1.765303   -0.325341    2.073987
C       0.686045   -0.764688    1.112783
H       0.894664    2.073040   -0.094187
H      -0.634197    1.864124   -0.938369
H      -0.635992    2.018549    0.821461
H      -1.254598   -0.378654   -1.330265
H       1.297659   -1.454233   -1.012218
H       3.955219   -0.250998    1.358746
H       2.874192    1.353425    3.003299
H       1.730319    1.912691    1.707806
H       1.898839   -0.948340    2.950197
H       0.110693   -1.639709    1.388544
