16

O       0.071013    1.397762    0.012881
C       0.023308    0.026423    0.033675
C       0.072667   -0.819802    1.360430
C      -1.430996   -0.524990    1.590125
C      -1.329465   -0.803210    0.071469
C      -0.314115   -1.955796    0.369512
N       0.724798   -2.000436   -0.665286
C       0.906732   -0.676256   -0.987430
O       1.559620   -0.146839   -1.859857
H       0.643380    1.626682   -0.736176
H       0.887939   -0.841468    2.085106
H      -1.989343   -1.252339    2.187171
H      -1.678980    0.497432    1.875693
H      -2.122568   -0.796289   -0.678456
H      -0.648864   -2.921727    0.738371
H       0.798926   -2.733598   -1.353022
