21

C      -0.045532    1.521995    0.017609
C       0.002143    0.001276    0.001309
C       1.347176   -0.679068   -0.245942
C       0.741939   -0.718070    1.120944
C       1.327133   -0.105855    2.403470
C       1.143075   -1.491445    3.092336
C       0.298581   -1.976721    1.876430
C      -1.174632   -0.643863   -0.514806
C      -2.175177   -1.172116   -0.926213
H       0.873011    1.933511    0.445643
H      -0.156902    1.919095   -0.996228
H      -0.890030    1.881702    0.614084
H       1.348709   -1.591090   -0.833575
H       2.197010   -0.024734   -0.417977
H       2.349709    0.276307    2.341278
H       0.692544    0.673970    2.835935
H       2.085066   -2.035310    3.193297
H       0.640996   -1.486798    4.061896
H      -0.777730   -1.992547    2.071659
H       0.581664   -2.935956    1.435477
H      -3.051431   -1.640078   -1.300425
