16

C       0.122886    1.517291    0.125855
C      -0.093657    0.016951   -0.063595
N       0.651783   -0.511359   -1.199886
C       1.720747   -1.347153   -1.216035
N       2.122809   -1.566849   -2.447919
C       1.245655   -0.821442   -3.180733
C       1.234264   -0.703480   -4.651613
O       2.009651   -1.253926   -5.392111
N       0.337230   -0.165167   -2.457666
H       1.175429    1.740127    0.322475
H      -0.186057    2.060883   -0.769679
H      -0.470605    1.872865    0.972737
H       0.233619   -0.545325    0.815263
H      -1.151633   -0.204828   -0.229239
H       2.150490   -1.758741   -0.314440
H       0.422893   -0.041949   -5.021637
