17

C       0.216149    1.435481    0.169659
N       0.238799   -0.016441    0.135203
C       0.418969   -0.593584   -0.977964
O       0.593649    0.114814   -2.157061
C       0.782848   -0.569946   -3.317995
C       0.809179   -1.911033   -3.382047
C       1.017537   -2.669712   -4.657642
N       0.637566   -2.676336   -2.221725
C       0.457745   -2.047066   -1.116185
H       1.158513    1.868087   -0.193479
H      -0.585104    1.846798   -0.459552
H       0.055090    1.767198    1.197503
H       0.906019    0.097655   -4.161477
H       1.907075   -3.304932   -4.586654
H       0.167040   -3.331119   -4.854938
H       1.139007   -1.996735   -5.510369
H       0.320765   -2.607973   -0.194583
