22

C      -0.512312    1.330571    0.078231
C       0.155413   -0.030923   -0.151447
C       1.207692    0.023763   -1.277431
N       0.662493    0.371061   -2.583157
C       0.102395   -0.555676   -3.402746
O       0.010273   -1.739674   -3.151128
C       0.789472   -0.561806    1.120489
C      -0.034396   -1.330531    2.122254
C       1.011566   -2.043004    1.299958
H       0.221437    2.078548    0.404282
H      -0.989185    1.701356   -0.834716
H      -1.281041    1.262356    0.853457
H      -0.609456   -0.748930   -0.474066
H       1.987765    0.753207   -1.030340
H       1.680582   -0.956714   -1.372536
H       0.653166    1.333802   -2.876984
H      -0.261327   -0.107255   -4.349382
H       1.555608    0.088289    1.540000
H       0.156535   -1.175480    3.178426
H      -1.076688   -1.516020    1.882769
H       0.669235   -2.700997    0.507648
H       1.916993   -2.376429    1.794841
