19

C      -0.136392    1.533619    0.106026
C       0.009261    0.022547    0.005815
C       0.735952   -0.596821    1.194987
O      -1.343050   -0.498236   -0.078380
C      -1.479620   -1.707598   -0.632103
N      -0.556984   -2.488703   -1.133707
C      -1.248915   -3.603008   -1.584369
C      -2.584426   -3.478970   -1.345690
N      -2.726943   -2.243493   -0.723366
H       0.850418    2.003575    0.148532
H      -0.672701    1.930788   -0.759846
H      -0.687752    1.809471    1.010648
H       0.523138   -0.253998   -0.920122
H       0.802609   -1.679951    1.076441
H       1.751883   -0.194860    1.262857
H       0.211516   -0.367621    2.128434
H      -0.730102   -4.425543   -2.051835
H      -3.428874   -4.117205   -1.541822
H      -3.576145   -1.807882   -0.407746
