14

C      -0.392072    1.371475   -0.681090
O      -0.279047   -0.057542   -0.808149
C       0.920280   -0.564013   -0.506799
O       1.868993    0.053673   -0.117319
C       0.891651   -2.095519   -0.752124
C       0.920102   -2.377792   -2.187511
C       0.942987   -2.595472   -3.366710
C       1.995955   -2.755995   -0.043756
N       2.838647   -3.306172    0.520175
H      -0.186995    1.678127    0.346887
H       0.313856    1.867886   -1.350577
H      -1.418235    1.609229   -0.957929
H      -0.052839   -2.467988   -0.334926
H       0.966598   -2.795009   -4.410073
