18

C      -0.016863    1.568568    0.006260
C      -0.000849    0.039076    0.005957
C       0.707994   -0.535430   -1.238033
C       0.740452   -1.990356   -1.268713
C       0.747781   -3.198265   -1.259436
C       0.760198   -4.648299   -1.254715
C       1.438527   -5.296936   -2.445619
O       0.259381   -5.289489   -0.354749
H       0.999588    1.977693   -0.002530
H      -0.540006    1.961740   -0.872588
H      -0.523227    1.955536    0.895191
H       0.503081   -0.335497    0.903374
H      -1.023593   -0.351300    0.040753
H       0.212757   -0.169321   -2.147835
H       1.736990   -0.153530   -1.286591
H       2.481484   -4.968244   -2.508916
H       1.393442   -6.382496   -2.346384
H       0.948542   -4.983587   -3.373800
