25

C       0.657749   -0.649103    1.578504
C      -0.774505   -0.120679    1.729657
C      -0.758937    1.414395    1.594445
C      -1.854322   -0.728680    0.813485
C      -3.257264   -0.499736    1.368623
C      -1.732128   -0.661044   -0.693386
C      -1.746825   -2.006344   -0.008377
C      -0.593865   -2.973839   -0.128072
O      -0.904718   -3.830883   -1.224281
H       1.315217   -0.124688    2.280073
H       0.730488   -1.716476    1.798439
H       1.057836   -0.473738    0.573923
H      -1.085217   -0.355677    2.758088
H      -0.417419    1.709108    0.595902
H      -1.745341    1.858167    1.751732
H      -0.076249    1.858982    2.326137
H      -3.457823    0.561677    1.546515
H      -4.021777   -0.863512    0.675936
H      -3.392366   -1.026747    2.320829
H      -2.589945   -0.346168   -1.279160
H      -0.779180   -0.345366   -1.109427
H      -2.686044   -2.551522   -0.071137
H       0.353921   -2.451018   -0.303099
H      -0.484499   -3.559065    0.800327
H      -0.189663   -4.468146   -1.312233
