17

C       0.007318    1.554218    0.078493
C      -0.070437    0.033606   -0.066016
C       0.749935   -0.489942   -1.258443
O       2.116328   -0.102675   -1.176830
C       0.634940   -1.980156   -1.397157
C       0.058827   -2.790441   -2.320863
O       0.255158   -4.061755   -1.972849
N       1.007679   -4.031564   -0.762603
N       1.202686   -2.826344   -0.463886
H       1.046218    1.878611    0.174995
H      -0.418774    2.057009   -0.797011
H      -0.545243    1.892368    0.959700
H       0.295415   -0.458018    0.844722
H      -1.111508   -0.288778   -0.192100
H       0.375641   -0.026645   -2.178883
H       2.514441   -0.608066   -0.457671
H      -0.492589   -2.607942   -3.228430
