17

O       0.678331   -0.142542    0.800452
C      -0.018007    0.052942   -0.428135
C      -1.497214   -0.364221   -0.332979
O      -2.175744    0.065070   -1.477162
C      -1.692159   -1.881144   -0.178606
O      -2.497612   -2.462531   -0.886952
N      -0.938249   -2.487982    0.786697
C      -1.017459   -3.840811    1.091144
N      -0.254730   -4.338511    1.974760
H       0.420311    0.557713    1.409017
H       0.020111    1.098268   -0.755853
H       0.497670   -0.552095   -1.179161
H      -1.918354    0.106243    0.576043
H      -2.689261   -0.708064   -1.768326
H      -0.225665   -1.930960    1.251388
H      -1.777577   -4.355358    0.499994
H      -0.439554   -5.334668    2.079062
