18

C      -0.088693    1.445393    0.026885
N      -0.101133   -0.006569    0.069952
C       0.530010   -0.603309    0.977909
N       0.581773   -1.988679    1.111455
C       1.346020   -2.399607    2.180041
N       1.650944   -3.552124    2.615463
C       1.819847   -1.102867    2.824404
C       3.332368   -0.984414    2.915095
O       1.271921   -0.062240    1.986462
H       0.462068    1.915509    0.849620
H       0.352972    1.777722   -0.919974
H      -1.119959    1.816216    0.042173
H       0.114135   -2.587276    0.451468
H       1.240394   -4.298143    2.052935
H       1.368041   -1.002707    3.817922
H       3.783694   -1.051664    1.921270
H       3.614796   -0.030566    3.367449
H       3.715347   -1.803273    3.528774
