13

C      -0.083117   -1.281076   -0.101822
C      -0.041164   -0.080496   -0.041067
C      -0.000814    1.363117    0.022667
C       0.124180    2.121028    1.387010
C       1.586115    1.639786    1.533731
C       1.354660    2.143863    0.090571
O       0.611473    3.297902    0.637882
H      -0.120129   -2.341098   -0.155302
H      -0.717579    1.839930   -0.649231
H      -0.644229    2.281012    2.143039
H       2.218762    2.282711    2.145515
H       1.765609    0.574562    1.685329
H       2.066516    2.331320   -0.713014
