16

C       0.091232    1.405403   -0.122616
C      -0.012157   -0.042141   -0.006001
C      -0.079743   -1.240352    0.089239
C      -0.211938   -2.686623    0.210124
C      -1.674304   -3.103506    0.420172
O      -1.757748   -4.519436    0.606532
C      -2.265682   -5.262732   -0.395497
O      -2.341063   -6.452487   -0.344538
H       0.523601    1.696874   -1.086003
H      -0.892342    1.881271   -0.043578
H       0.725667    1.823528    0.666458
H       0.174153   -3.185488   -0.688048
H       0.381355   -3.062927    1.052078
H      -2.079517   -2.638983    1.322117
H      -2.288984   -2.791485   -0.432586
H      -2.606383   -4.648383   -1.252836
