25

C       0.124451    1.657600   -0.006607
C      -0.011266    0.131834   -0.004882
C       0.638939   -0.521158   -1.230586
C       0.623656   -2.059985   -1.237035
C      -0.795114   -2.639959   -1.276665
C       1.468485   -2.582040   -2.427525
C       1.665321   -4.027987   -2.431106
C       1.827972   -5.221470   -2.410648
C       2.033859   -6.663307   -2.398438
H       1.177107    1.961878   -0.012947
H      -0.349851    2.095884   -0.891908
H      -0.345576    2.101935    0.876367
H       0.446914   -0.275291    0.906516
H      -1.073517   -0.134498    0.042986
H       0.145510   -0.152508   -2.142221
H       1.681677   -0.179676   -1.294444
H       1.112750   -2.409695   -0.317408
H      -0.763851   -3.731276   -1.337474
H      -1.368742   -2.368855   -0.386190
H      -1.342343   -2.269746   -2.152793
H       0.987269   -2.272594   -3.366551
H       2.447321   -2.084575   -2.414077
H       3.026667   -6.927378   -2.779982
H       1.952981   -7.070013   -1.384094
H       1.293888   -7.179547   -3.020336
