14

C      -0.217699    1.377929    0.051392
C       0.068784   -0.082609    0.019546
N       0.767711   -0.640557   -0.932711
O       0.786426   -2.003828   -0.571654
C       0.092613   -2.097548    0.560545
C      -0.059729   -3.418792    1.247423
O      -1.009590   -3.352477    2.278523
N      -0.377596   -0.965618    0.985366
H       0.179253    1.821366    0.969397
H       0.232784    1.871235   -0.810737
H      -1.297901    1.551040    0.043142
H      -0.370038   -4.175274    0.515790
H       0.931710   -3.727574    1.620035
H      -1.101676   -2.422445    2.523115
