25

C       2.369411    2.362720   -0.699426
C       1.185962    1.406416   -0.505594
C       1.263737    0.194775   -1.414676
C       2.010377   -1.076556   -1.049463
C       2.738691   -1.264461    0.265274
C       0.496266   -1.088027   -1.155070
C      -0.403139   -1.275734    0.028080
C      -1.900312   -1.320675   -0.169657
C      -1.151305   -2.576721    0.201136
H       3.318276    1.868231   -0.467146
H       2.426657    2.713679   -1.735855
H       2.280568    3.242857   -0.054474
H       1.135746    1.104215    0.545249
H       0.248207    1.941631   -0.705170
H       1.334703    0.473661   -2.464887
H       2.522944   -1.554490   -1.881409
H       2.240601   -0.768747    1.101820
H       2.814993   -2.327860    0.518723
H       3.757706   -0.865297    0.209071
H       0.103240   -1.574223   -2.046552
H      -0.074927   -0.807284    0.949555
H      -2.536461   -0.858259    0.577202
H      -2.276195   -1.236456   -1.184251
H      -1.024206   -3.335193   -0.564603
H      -1.273702   -2.975314    1.202352
