18

C      -0.263976    1.513077    0.147209
C       0.010008    0.020038    0.006829
C       0.777938   -0.441584   -1.300567
N       1.910784   -0.792840   -0.421296
C       1.226153   -0.539568    0.746411
N       1.722353   -0.930031    1.851822
C       2.982516   -1.587940    1.412046
C       2.998272   -1.609317   -0.149704
N       3.745460   -2.172291   -1.006454
H       0.640340    2.098832   -0.045037
H      -1.035876    1.832726   -0.559665
H      -0.610066    1.747325    1.157801
H      -0.895082   -0.562481    0.196689
H       0.339923   -1.301455   -1.814540
H       1.006868    0.347836   -2.020721
H       3.853393   -1.038840    1.789406
H       3.037006   -2.604818    1.814653
H       4.468966   -2.721115   -0.542897
