14

O       0.031399    0.023929   -0.464327
C       0.020440    1.197344   -0.177562
N       1.093035    1.879107    0.346212
C       2.522717    1.519749    0.178004
C       2.868925    2.110003   -1.179408
C       2.185549    3.271872   -1.209453
C       1.473732    3.301906    0.133107
C       2.746020    2.871005    1.009155
O       3.463335    3.317349    1.830104
H      -0.882081    1.837039   -0.238064
H       2.856418    0.533140    0.480277
H       3.593029    1.715567   -1.876448
H       2.209390    4.069781   -1.936749
H       0.773647    4.087983    0.401112
