18

O      -0.216523   -0.048072    0.106407
C      -0.057001    1.153454    0.068629
N      -1.044786    2.116385    0.089640
C      -0.543640    3.471103   -0.024393
C       0.949824    3.231851   -0.068011
C       1.221224    1.928127   -0.014220
C      -1.076707    4.216177   -1.235535
C      -2.394785    4.946192   -1.151927
C      -1.104993    5.722916   -1.236819
H      -2.021005    1.876753    0.051119
H      -0.795364    4.058567    0.874731
H       1.650709    4.053457   -0.140393
H       2.185217    1.439991   -0.030842
H      -0.847923    3.728561   -2.178728
H      -3.046284    4.928009   -2.018053
H      -2.919134    4.943946   -0.201415
H      -0.768815    6.239901   -0.343608
H      -0.869417    6.238536   -2.160576
