16

C      -0.072630    1.517341    0.036537
C       0.092687    0.033550    0.087878
O      -1.151152   -0.715905    0.149388
C      -0.414331   -1.750548    0.793808
C       0.934791   -1.890633    0.072771
C       0.725826   -0.889665    1.205676
C       0.929804   -0.774973   -0.974342
C       0.336079   -0.996162   -2.287464
N      -0.124353   -1.163164   -3.334407
H       0.901442    2.014423    0.012597
H      -0.629080    1.797304   -0.864015
H      -0.627868    1.870510    0.909481
H      -0.944091   -2.558012    1.279495
H       1.522916   -2.798152    0.071001
H       1.251212   -0.705393    2.131670
H       1.927474   -0.341248   -1.080888
