17

C       0.051037    1.342174    0.294480
O       0.012300   -0.006098   -0.167733
C      -1.244704   -0.543745   -0.166521
C      -1.896760   -1.094688    1.104596
C      -1.652235   -2.035763   -0.028584
C      -2.755231   -1.860637   -1.070423
O      -4.056374   -2.139496   -0.611414
C      -2.300209   -0.370927   -1.216843
O      -2.580767    0.494013   -2.000691
H       1.094489    1.658555    0.245415
H      -0.558952    1.993678   -0.341430
H      -0.303384    1.415578    1.331595
H      -1.188145   -1.160887    1.924039
H      -2.911296   -0.836991    1.386642
H      -0.980985   -2.881047    0.035267
H      -2.524688   -2.391510   -2.007322
H      -4.676185   -1.752858   -1.239884
