23

C       0.212937    0.766504    0.639726
O       0.042285   -0.459788   -0.032233
C       0.537580   -0.459909   -1.364483
C       2.079754   -0.612959   -1.436005
O       2.364096   -1.909265   -1.941018
C       1.186130   -2.736085   -1.892972
C       1.301073   -3.731478   -3.044151
C       1.109374   -3.462028   -0.540814
C       0.038419   -1.722070   -2.075844
H       1.272382    1.031447    0.775622
H      -0.280088    1.592039    0.101935
H      -0.246816    0.662176    1.625497
H       0.200456    0.458245   -1.866616
H       2.541717    0.120539   -2.107449
H       2.511288   -0.476925   -0.434147
H       2.175312   -4.375005   -2.907666
H       0.412504   -4.368526   -3.095652
H       1.410619   -3.204100   -3.995981
H       0.990423   -2.749508    0.278418
H       0.256542   -4.148906   -0.516887
H       2.023139   -4.041290   -0.378416
H      -0.914409   -2.052489   -1.657929
H      -0.100740   -1.513836   -3.141120
