20

C      -0.852052    1.094885   -1.187146
C       0.027229   -0.075808   -0.798461
O       1.385237    0.055843   -1.290225
C       1.935827   -0.353318   -0.018348
C       3.092842    0.523513    0.422727
C       0.540829   -0.255289    0.656541
C       0.308455    0.884291    1.631502
O      -1.062850    0.840102    2.007299
H      -0.411801    2.045931   -0.875434
H      -0.972700    1.122143   -2.274778
H      -1.837911    0.997932   -0.724289
H      -0.419799   -1.007757   -1.175468
H       2.277193   -1.398581   -0.071944
H       2.799350    1.573644    0.500965
H       3.485517    0.191953    1.390081
H       3.902207    0.455280   -0.311129
H       0.203399   -1.178509    1.133848
H       0.964354    0.755209    2.507639
H       0.562091    1.852223    1.175927
H      -1.243258    1.592588    2.578323
