19

C      -0.008899    1.435344   -0.122934
C      -0.097212   -0.061174    0.053375
O      -0.522805   -0.632958    1.022361
O       0.387415   -0.692641   -1.045442
C       0.350251   -2.109967   -1.021644
C      -0.645278   -2.804999   -1.901029
C       0.829996   -2.806393   -2.257737
C       1.309080   -2.028145   -3.455239
O       1.095374   -2.832000   -4.608569
H      -0.372803    1.927833    0.777783
H       1.024895    1.731535   -0.321100
H      -0.607092    1.745970   -0.984478
H       0.576973   -2.519033   -0.045302
H      -1.110299   -3.715322   -1.540677
H      -1.286064   -2.173066   -2.506521
H       1.370338   -3.734494   -2.094750
H       0.765738   -1.075000   -3.520915
H       2.377242   -1.786962   -3.333850
H       1.461478   -2.366026   -5.366157
