21

C      -0.088885    1.400703    0.187259
C       0.059020   -0.096750   -0.069994
C       0.794365   -0.401237   -1.359769
O       1.232078    0.417220   -2.129491
O       0.901830   -1.733561   -1.545736
C       1.584622   -2.145726   -2.743105
C       1.597905   -3.665006   -2.762205
C       2.302246   -4.216893   -3.995846
O       2.258069   -5.632172   -3.915505
H       0.888579    1.885556    0.249665
H      -0.641074    1.884286   -0.622459
H      -0.623514    1.576900    1.124729
H       0.598008   -0.593944    0.745220
H      -0.916437   -0.595222   -0.117935
H       1.064398   -1.728830   -3.612459
H       2.596729   -1.726395   -2.739530
H       2.100928   -4.042195   -1.865500
H       0.570946   -4.044685   -2.738029
H       1.801014   -3.852223   -4.907580
H       3.341514   -3.850423   -4.028841
H       2.700423   -5.991476   -4.689954
