15

C      -0.039135    1.455806   -0.153582
C      -0.097557   -0.033676    0.073033
O      -0.227308   -0.588454    1.132074
O       0.017872   -0.701378   -1.103603
C      -0.024997   -2.129170   -1.005052
C       0.121952   -2.651753   -2.436899
C       0.094674   -4.110747   -2.485377
N       0.071559   -5.265328   -2.509949
H       0.906293    1.725784   -0.632480
H      -0.844304    1.764978   -0.826029
H      -0.133231    1.970378    0.801590
H       0.785090   -2.486502   -0.363503
H      -0.970803   -2.447211   -0.558048
H      -0.686722   -2.255454   -3.059945
H       1.064056   -2.294633   -2.865965
