19

O       1.294501   -0.038571    0.055927
C       0.839343    0.927350   -0.501308
C       0.947033    2.346866    0.033483
C       1.236614    3.396190   -1.032024
C       2.604138    4.058339   -1.205919
C       3.824082    3.419437   -0.561952
C       3.838780    1.973262   -1.116897
O       2.863576    1.900422   -2.172602
C       2.114410    3.082599   -2.226608
H       0.261013    0.832738   -1.446800
H      -0.027474    2.572611    0.487288
H       1.673246    2.344064    0.852122
H       0.410533    4.065828   -1.252553
H       2.626649    5.124161   -1.399733
H       4.718105    3.971156   -0.866922
H       3.795522    3.427501    0.532406
H       4.810378    1.693173   -1.536643
H       3.576402    1.239159   -0.347805
H       1.812835    3.340315   -3.235641
