16

O       0.155401    0.048762    0.098066
C       0.033273    1.231500    0.061314
C      -1.068306    2.274163   -0.056975
C      -0.733870    3.007957    1.316386
N       0.797953    3.004692    1.372233
C       0.999064    2.472379    0.030399
C       1.937092    2.369528   -1.165998
O       0.735054    2.442255   -2.016178
C      -0.036934    3.047217   -0.933066
H      -2.121369    2.086455   -0.261607
H      -1.130773    4.027672    1.333536
H      -1.149908    2.451747    2.159054
H       1.117217    3.968317    1.419151
H       2.592621    3.230553   -1.343052
H       2.480038    1.431408   -1.305188
H      -0.188664    4.120257   -1.077269
