11

N      -0.038234   -1.164887    0.175375
C       0.002598   -0.015025    0.087606
C       0.020575    1.446856   -0.025377
N       1.365227    1.993258    0.006314
N       2.111174    2.043180    1.103594
C       3.218636    2.596963    0.630986
N       3.143998    2.871658   -0.694348
N       1.960526    2.480281   -1.080792
H      -0.420048    1.753422   -0.976638
H      -0.557052    1.884857    0.792797
H       4.081987    2.808645    1.240135
