11

C      -0.009929    1.401001    0.001534
O      -0.016111   -0.007617    0.034823
C       0.626966   -0.565713   -1.093177
C       0.599376   -2.020505   -1.017069
C       0.591653   -3.220607   -0.980900
H       1.014650    1.806277   -0.003838
H      -0.537661    1.792365   -0.882989
H      -0.522771    1.746783    0.901487
H       0.132789   -0.233829   -2.023154
H       1.673107   -0.217564   -1.153059
H       0.581040   -4.281770   -0.942182
