20

C      -0.000047    1.527480   -0.071485
C      -0.092282    0.001691   -0.150422
C      -1.474958   -0.536628    0.243476
C      -1.553104   -2.046065    0.159910
C      -2.832397   -2.869000    0.151009
C      -3.880820   -2.205591   -0.735331
O      -2.934923   -2.074390   -1.831001
C      -1.950085   -2.792479   -1.078257
H       0.995107    1.883350   -0.356207
H      -0.727067    2.001992   -0.739882
H      -0.203523    1.885508    0.944122
H       0.141831   -0.330630   -1.169469
H       0.671414   -0.446420    0.499488
H      -1.718570   -0.210074    1.263564
H      -2.228815   -0.097019   -0.418059
H      -0.767506   -2.567230    0.707234
H      -3.015268   -3.683881    0.838580
H      -4.696092   -2.881026   -1.018162
H      -4.294737   -1.240753   -0.419500
H      -1.353138   -3.526768   -1.607838
