16

C      -0.073539   -1.177671    0.309134
C      -0.062633    0.006478    0.107671
C      -0.023481    1.445291   -0.148028
C       1.374066    2.004204   -0.159551
N       2.164347    2.303199    1.049803
C       1.877401    3.378098    0.062506
C       2.877968    3.202432   -1.137409
O       3.718773    2.079255   -0.883549
C       2.396205    1.838831   -1.353872
H      -0.084014   -2.223308    0.493879
H      -0.505591    1.656017   -1.112812
H      -0.618485    1.975578    0.607792
H       1.499124    2.425691    1.814913
H       1.347468    4.282782    0.330542
H       3.227505    3.965916   -1.821140
H       2.263624    1.243200   -2.249117
