16

O       0.332294    1.357914    0.261688
C       0.122268   -0.010015   -0.042669
C      -1.307073   -0.465421    0.273140
C      -1.529314   -1.939008    0.005501
C      -2.973761   -2.472848   -0.013553
C      -2.683721   -2.745519   -1.490081
O      -3.247180   -3.196233   -2.433366
O      -1.400144   -2.262524   -1.431098
H      -0.155271    1.883302   -0.380483
H       0.359425   -0.236963   -1.091594
H       0.833821   -0.566104    0.578305
H      -1.523589   -0.258875    1.328271
H      -2.021069    0.117465   -0.324317
H      -0.827607   -2.562847    0.567482
H      -3.173972   -3.367867    0.577305
H      -3.758300   -1.733903    0.160787
