21

C       0.012602    1.530102    0.113052
C       0.029037    0.001216    0.070245
C       0.827492   -0.522402   -1.137231
C       0.731912   -1.966449   -1.306849
C       0.632810   -3.155092   -1.452440
O       0.644650   -0.544625    1.229239
C      -0.200987   -0.704902    2.355608
C       0.685258   -1.194377    3.490670
O       1.709521   -0.263921    3.781450
H       1.034325    1.922159    0.144864
H      -0.489621    1.939018   -0.769442
H      -0.518338    1.892460    0.997389
H      -1.000958   -0.378475   -0.003821
H       0.472316   -0.017500   -2.043748
H       1.876331   -0.228674   -1.003293
H       0.555967   -4.206242   -1.580002
H      -0.667725    0.250382    2.639053
H      -0.999560   -1.432496    2.140674
H       0.088126   -1.315967    4.400338
H       1.098762   -2.178701    3.220209
H       2.120214   -0.060327    2.932903
