25

C      -0.189565    1.388959   -0.026733
O      -0.027093   -0.008403   -0.087442
C       0.698262   -0.557564   -1.201165
C       0.066665   -0.148269   -2.540935
C       2.173647   -0.128521   -1.147635
C       0.606200   -2.081470   -0.972419
C      -0.800363   -2.642225   -0.949777
C      -1.428429   -3.241084   -2.185591
C      -1.016182   -4.131340   -1.039467
H       0.766962    1.930201   -0.003774
H      -0.789707    1.784740   -0.858057
H      -0.720063    1.597275    0.906549
H       0.206213    0.917386   -2.745150
H       0.534692   -0.700610   -3.361553
H      -1.003330   -0.367857   -2.549535
H       2.605647   -0.373157   -0.172701
H       2.749850   -0.647202   -1.920255
H       2.293216    0.945379   -1.318384
H       1.195945   -2.590527   -1.745037
H       1.093536   -2.292229   -0.012076
H      -1.469837   -2.102076   -0.288793
H      -2.486992   -3.081119   -2.360562
H      -0.833109   -3.279788   -3.092368
H      -0.143785   -4.762293   -1.179366
H      -1.791420   -4.580202   -0.428187
