18

C      -0.250482    1.451604   -0.626776
O      -0.306266    0.023201   -0.484467
C       0.847914   -0.624567   -0.677355
O       1.895880   -0.065117   -0.925223
C       0.675689   -2.128487   -0.590980
N       0.580112   -2.679727   -1.980933
C       1.955102   -3.259462   -1.878128
C       2.009874   -2.918958   -0.362673
O       3.120129   -2.285112    0.183200
H       0.459755    1.879296    0.084621
H       0.056270    1.721927   -1.639897
H      -1.260069    1.807586   -0.423842
H      -0.165965   -2.364051    0.064865
H      -0.131129   -3.400137   -2.027741
H       2.042172   -4.315208   -2.152358
H       2.671814   -2.680976   -2.470796
H       1.816125   -3.805139    0.249018
H       3.170934   -1.412871   -0.237781
