21

O      -0.106112    1.468862   -0.154002
C       0.012089    0.061112   -0.021816
C      -1.394396   -0.529739   -0.054972
C      -1.401991   -2.038299    0.065057
C      -0.908788   -2.896204   -1.144102
C      -2.229616   -3.727164   -1.103989
C      -2.681619   -2.929070    0.137032
O      -2.244902   -3.526847    1.374863
C      -1.074151   -2.681673    1.429419
H       0.776767    1.849311   -0.133744
H       0.616338   -0.366936   -0.838068
H       0.508162   -0.209606    0.925024
H      -1.977924   -0.083536    0.759853
H      -1.874631   -0.222267   -0.992198
H      -0.787606   -2.315785   -2.062501
H       0.014371   -3.456087   -0.970768
H      -2.865656   -3.568473   -1.979229
H      -2.131486   -4.800048   -0.926134
H      -3.710635   -2.561108    0.193566
H      -0.143345   -3.260109    1.495736
H      -1.123638   -1.988132    2.280734
