19

C      -0.074902    1.449038    0.039684
N       0.050244    0.009742    0.014146
C       0.043638   -0.749919   -1.149008
C       0.060790   -2.068609   -0.772040
O       0.082330   -3.165999   -1.571495
C       0.067746   -2.118598    0.649458
N       0.102165   -3.370465    1.335687
C       0.055487   -0.812763    1.114121
C       0.044729   -0.303224    2.516071
H       0.557233    1.877500    0.822527
H       0.253594    1.852834   -0.920429
H      -1.108976    1.773715    0.215085
H       0.035079   -0.284067   -2.119653
H       0.100113   -3.914772   -0.956209
H      -0.708768   -3.514598    1.928295
H       0.927071   -3.476105    1.916971
H       0.916670    0.322129    2.747778
H      -0.848844    0.291086    2.746600
H       0.060004   -1.151539    3.205845
