18

C      -0.084949    1.407921    0.175304
C       0.344555   -0.060518    0.091595
C       0.742340   -0.492970   -1.315474
C       0.464525   -1.902410   -1.746697
N      -0.324438   -0.805755   -2.306107
C       1.895115    0.168413   -1.867236
C       2.886844    0.725666   -2.277459
C       4.048538    1.375700   -2.820830
O       4.852474    2.005445   -2.170487
H       0.728421    2.070260   -0.134785
H      -0.945671    1.609460   -0.470849
H      -0.363513    1.670725    1.199649
H       1.190007   -0.239242    0.765861
H      -0.469856   -0.713485    0.429527
H       1.135037   -2.388394   -2.448214
H       0.018093   -2.558834   -1.003852
H      -1.225723   -0.748006   -1.835307
H       4.159638    1.255355   -3.917850
