21

C      -0.007075    1.541078    0.021119
C       0.054869    0.028789   -0.015018
C      -0.838582   -0.747082    0.951300
C       0.641250   -0.735973    1.176679
C       1.461221   -2.011755    0.974627
C       1.859490   -2.259456   -0.487829
C       0.674583   -2.024080   -1.441128
C       0.246187   -0.563287   -1.376847
O       0.123885    0.110492   -2.378963
H       0.920566    1.982186   -0.356567
H      -0.821589    1.908803   -0.608541
H      -0.167058    1.898037    1.043033
H      -1.474921   -0.148967    1.594876
H      -1.296360   -1.669194    0.608699
H       0.983905   -0.090818    1.980272
H       2.364083   -1.960213    1.591499
H       0.888321   -2.871567    1.344525
H       2.674170   -1.579993   -0.768103
H       2.246377   -3.276989   -0.607045
H       0.930723   -2.243669   -2.480021
H      -0.162996   -2.676699   -1.161522
