17

O       0.608112    1.206042   -0.012748
C       0.200634   -0.128126    0.050967
C      -0.245057   -0.679084    1.424528
C      -1.522805    0.188191    1.367290
C      -1.316972   -0.498841   -0.008411
O      -0.961665   -1.752945    0.689130
C      -2.175119   -0.570230   -1.222109
C      -3.408156    0.212197   -1.363031
O      -2.195358    0.645596   -1.986040
H       0.390789    1.538352   -0.890678
H       0.837107   -0.817837   -0.515595
H       0.355833   -0.976205    2.282610
H      -2.364764   -0.191435    1.947464
H      -1.397307    1.269480    1.418541
H      -2.052357   -1.479573   -1.811046
H      -4.185518   -0.128032   -2.045098
H      -3.748409    0.823916   -0.529563
