19

C      -0.048743    1.613523   -0.010810
C       0.034980    0.082383    0.004258
C       0.698145   -0.480759   -1.256711
O       2.126981   -0.318896   -1.266331
C       2.812729   -0.959152   -0.272911
N       3.969017   -1.443883   -0.443251
C       2.152940   -1.004743    1.062790
N       1.932877    0.324551    1.678922
C       0.775902   -0.456124    1.232631
H       0.948952    2.051022   -0.079060
H      -0.646277    1.956993   -0.861559
H      -0.514936    1.989128    0.905086
H      -0.983080   -0.326446    0.025222
H       0.466238   -1.548977   -1.363960
H       0.349224    0.035272   -2.154699
H       4.260125   -1.312063   -1.414686
H       2.497491   -1.814058    1.696442
H       2.050125    0.249626    2.685675
H       0.158346   -0.917474    1.999437
