16

C      -0.021659    1.517277    0.000013
C       0.055552    0.014462    0.007066
C      -0.821993   -0.830899    0.917526
C       0.673614   -0.849796    1.090737
O       1.375720   -1.879991    0.408783
C       1.126018   -1.648893   -0.914775
N       1.613516   -2.615675   -1.752369
N       0.437425   -0.620629   -1.238805
H       0.921079    1.953873   -0.344982
H      -0.815058    1.854519   -0.674939
H      -0.238468    1.905241    0.999851
H      -1.377902   -0.311926    1.691969
H      -1.311247   -1.705754    0.501821
H       1.175368   -0.528509    1.994607
H       2.442250   -3.086892   -1.421569
H       1.652247   -2.328286   -2.718329
