15

O      -0.001322   -0.035509   -0.339534
C       0.040154    1.099310    0.064326
C       1.274263    1.927474    0.054722
C       1.172791    3.410391   -0.181980
C       1.529929    2.937680    1.216085
C       0.538630    3.073091    2.255986
C      -0.277638    3.202970    3.128146
C       2.901756    3.060514    1.640444
C       4.048986    3.160396    1.983395
H      -0.860813    1.609955    0.466361
H       2.158822    1.415364   -0.304280
H       1.957097    3.881838   -0.760739
H       0.182080    3.834441   -0.302543
H      -0.994795    3.311715    3.904050
H       5.060014    3.249828    2.296078
