13

N      -0.114896    1.480605   -0.219943
C      -0.028637    0.092550   -0.065567
C      -0.298058   -0.850196   -1.236590
C      -1.129001   -0.992428   -0.006388
O      -0.375629   -1.743305    0.979360
C       0.589204   -0.733724    1.053035
O       1.489783   -0.649258    1.816295
C      -2.537255   -0.884648    0.129871
N      -3.685456   -0.782012    0.228008
H      -0.125715    1.974944    0.664113
H       0.621341    1.855761   -0.806099
H      -0.773616   -0.350236   -2.074569
H       0.391913   -1.650206   -1.483766
