19

C       0.088090    1.435161   -0.269956
C       0.004146   -0.022841    0.109340
O       1.223426   -0.770276    0.156739
C       0.491155   -0.598209    1.373158
C       1.132552    0.206919    2.471586
O       1.849337   -0.688687    3.298608
C       2.501294   -0.030112    4.366575
C       3.193711   -1.000932    5.203063
C       3.773479   -1.778655    5.910482
H       0.917787    1.941199    0.227296
H       0.233067    1.532788   -1.350853
H      -0.843225    1.950826   -0.011304
H      -0.813704   -0.560563   -0.375801
H       0.012498   -1.507922    1.739093
H       1.803622    0.967992    2.047787
H       0.354663    0.728823    3.057487
H       3.223495    0.709860    3.980738
H       1.771847    0.531349    4.976515
H       4.285055   -2.473002    6.530108
