14

N      -0.067542   -1.082681   -0.003490
C      -0.011831    0.070259    0.002845
C       0.004247    1.533480    0.011723
O       1.358134    1.963349   -0.001494
C       1.519246    3.304969    0.004984
N       0.494856    4.145513    0.022254
N       1.087060    5.365115    0.022898
C       2.437429    5.295238    0.006628
C       2.771196    3.958548   -0.005631
H      -0.536489    1.917056   -0.862161
H      -0.515790    1.906134    0.902728
H       0.506655    6.185085    0.034772
H       3.050636    6.182578    0.004972
H       3.751207    3.514208   -0.019898
