22

O      -0.070182    1.461701    0.082451
C       0.037747    0.045997    0.016886
C      -1.373558   -0.533608   -0.055432
C      -2.140104   -0.086998   -1.309620
C      -3.475588   -0.829689   -1.385813
C      -3.257677   -2.337597   -1.550678
N      -2.290533   -2.927394   -0.603237
C      -0.885737   -2.945051   -1.001795
C      -1.341419   -2.048344    0.095809
H       0.816985    1.831815    0.090796
H       0.611335   -0.269929   -0.869226
H       0.557251   -0.353172    0.903296
H      -1.918110   -0.134831    0.812330
H      -2.284367    0.995383   -1.270277
H      -1.546846   -0.289782   -2.212462
H      -4.047359   -0.636332   -0.468704
H      -4.086058   -0.464489   -2.218989
H      -4.208477   -2.866847   -1.419119
H      -2.923483   -2.545366   -2.575859
H      -0.339321   -3.859411   -0.780625
H      -0.622304   -2.488322   -1.955275
H      -1.143682   -2.377024    1.116105
