21

C      -0.343026    1.550805   -0.115268
C      -0.091347    0.060096   -0.032453
C      -1.259506   -0.812545   -0.450992
C       1.296233   -0.480648   -0.344760
O       2.334557    0.413285   -0.626059
C       3.261101    0.451578    0.453739
C       2.586359    1.023487    1.689404
O       1.381458    0.341688    2.035683
C       0.790533   -0.488836    1.076938
H       0.575679    2.127532   -0.005214
H      -0.777637    1.808470   -1.087765
H      -1.045961    1.869912    0.661738
H      -1.531568   -0.628595   -1.497003
H      -1.025733   -1.877886   -0.352195
H      -2.141408   -0.608562    0.167242
H       1.377082   -1.421959   -0.889420
H       3.658520   -0.555024    0.651579
H       4.087953    1.097532    0.145483
H       3.255691    0.960538    2.555787
H       2.358831    2.084432    1.513348
H       0.502374   -1.439398    1.519676
