19

C       0.180393    1.780267   -0.121668
C       0.293172    0.274096    0.143141
C       0.685485   -0.503804   -1.112919
C       0.841808   -2.058080   -1.119314
C      -0.233588   -2.852726   -0.362815
O      -1.146282   -2.794547   -1.488332
C      -0.145186   -2.170124   -2.326271
C      -0.334944   -0.635002   -2.268444
O      -1.035590    0.140236   -2.851057
H       1.143949    2.198627   -0.433278
H      -0.542743    1.979538   -0.916895
H      -0.140114    2.312990    0.778480
H       1.035073    0.082834    0.928965
H      -0.665029   -0.099922    0.521894
H       1.597961   -0.063285   -1.541361
H       1.856528   -2.450020   -1.125692
H       0.050415   -3.890100   -0.147473
H      -0.658189   -2.403801    0.541208
H       0.015150   -2.686050   -3.276205
