19

C      -0.053054    1.393781   -0.062939
N      -0.023441   -0.044561    0.010036
N       0.062059   -0.789275   -1.132676
C       0.063960   -2.046184   -0.706849
N       0.043126   -3.111297   -1.612768
C       0.024045   -2.145665    0.707900
C       0.020495   -3.384325    1.545727
C      -0.023315   -0.822550    1.121768
N      -0.138986   -0.248185    2.398001
H       0.953147    1.826027   -0.141344
H      -0.624205    1.685656   -0.946135
H      -0.540044    1.782141    0.834514
H       0.285729   -2.798112   -2.544894
H       0.645131   -3.877005   -1.337155
H       0.837990   -4.065916    1.276285
H       0.152393   -3.148126    2.607811
H      -0.912168   -3.954745    1.452140
H      -0.328307   -0.953116    3.099075
H       0.687844    0.268999    2.678854
