13

O       0.153071    1.300188    0.320116
C       0.023211    0.009882   -0.234759
C      -1.403627   -0.503866   -0.133562
C      -1.650636   -1.904455    0.264778
O      -1.770885   -0.858640    1.222421
C      -2.405511    0.215519   -0.881453
C      -3.215908    0.816870   -1.533466
H      -0.153079    1.246257    1.232862
H       0.320543    0.089368   -1.284829
H       0.685379   -0.717481    0.258802
H      -2.584142   -2.377506   -0.032580
H      -0.802564   -2.574946    0.399832
H      -3.936376    1.354329   -2.099381
