20

C      -0.004203    1.818890    0.080048
C      -0.117781    0.308688    0.119170
N       1.118144   -0.462953   -0.082471
C       0.423907   -0.531013    1.225851
C       1.228681   -0.025613    2.401027
O       2.333593   -0.877719    2.653146
C      -1.362541   -0.208727   -0.557278
C      -1.377094   -0.568836   -1.981410
O      -1.351698   -1.577004   -0.960253
H       0.940968    2.157171    0.505734
H      -0.049623    2.174863   -0.955070
H      -0.823762    2.290502    0.633963
H       0.889179   -1.307376   -0.605787
H      -0.116364   -1.455716    1.421903
H       1.558626    1.008627    2.231111
H       0.617924   -0.033485    3.310206
H       2.808878   -0.942336    1.815860
H      -2.301463    0.118436   -0.107277
H      -2.303303   -0.510236   -2.549506
H      -0.461902   -0.479129   -2.564108
