21

C      -0.100391    1.529376    0.046200
C       0.159686    0.061977   -0.045424
O      -0.783273   -0.840199    0.577842
C       0.610324   -0.951292    0.923676
C       1.291699   -1.812661   -0.155685
C       2.815465   -1.748681   -0.058450
C       0.780634   -3.241323   -0.295054
C       0.731017   -0.759779   -1.217791
O      -0.197884   -1.189533   -2.174370
H       0.803551    2.097747   -0.195330
H      -0.881977    1.826840   -0.661654
H      -0.428356    1.800525    1.053265
H       0.862721   -0.845844    1.974303
H       3.181761   -2.311311    0.807822
H       3.278012   -2.176162   -0.954557
H       3.170083   -0.716440    0.041961
H      -0.310160   -3.278489   -0.242870
H       1.089401   -3.671756   -1.252949
H       1.177308   -3.875928    0.505456
H       1.541017   -0.260781   -1.757139
H      -0.981337   -1.461543   -1.679154
