22

C      -0.118776    1.557601    0.064369
C       0.037059    0.041410   -0.027156
C       1.050378   -0.439870   -1.085479
C       1.334360   -1.909287   -0.710661
C       2.617824   -2.507672   -1.283089
C       1.264466   -1.868877    0.807640
C       0.536528   -0.627955    1.273093
N       1.799582   -2.775543    1.521019
O       1.610184   -2.520444    2.894685
H       0.836996    2.034450    0.311721
H      -0.466526    1.980082   -0.884381
H      -0.840722    1.838751    0.838436
H      -0.939647   -0.394659   -0.278891
H       0.684542   -0.326502   -2.110374
H       1.977085    0.145416   -1.001931
H       0.481587   -2.512551   -1.059474
H       3.490662   -1.925681   -0.969262
H       2.758758   -3.532616   -0.931500
H       2.588477   -2.516730   -2.377480
H       1.243931    0.021673    1.806968
H      -0.256667   -0.863390    1.988715
H       2.062186   -3.266764    3.301930
