16

C       0.023895    1.611544   -0.454006
C      -0.045654    0.145825   -0.076462
N       1.220682   -0.598214   -0.060115
C       0.526984   -0.410872    1.212447
C       1.184680    0.493556    2.232675
N       0.801515    0.231155    3.514695
O       1.965341    1.376789    1.943574
C      -1.217784   -0.561764   -0.555661
N      -2.144733   -1.130505   -0.950518
H       0.924665    2.048119   -0.024358
H       0.052954    1.710164   -1.542834
H      -0.855276    2.146173   -0.082990
H       1.097594   -1.550270   -0.395924
H      -0.010431   -1.263982    1.621770
H       0.147761   -0.493012    3.753930
H       1.173676    0.810467    4.249321
