18

O       0.112132    1.408960   -0.020328
C       0.086846    0.000751    0.069003
C      -1.353797   -0.518340    0.027272
O      -2.006454   -0.015476   -1.143632
C      -1.429770   -2.040502    0.101126
C      -2.835084   -2.715251    0.083375
N      -2.403979   -3.430344   -1.127508
C      -1.218682   -2.756708   -1.259954
O      -0.399271   -2.690116   -2.141867
H      -0.530649    1.638041   -0.703768
H       0.659938   -0.475768   -0.744550
H       0.562361   -0.275768    1.016749
H      -1.907559   -0.074886    0.863074
H      -1.543524   -0.385169   -1.908580
H      -0.777571   -2.427183    0.888905
H      -3.072333   -3.366293    0.928608
H      -3.649697   -2.007217   -0.094683
H      -2.939590   -3.931895   -1.821602
