20

C       0.054902    1.716116   -0.037193
C       0.194290    0.200716    0.150497
C       0.708284   -0.488775   -1.110665
C       0.799071   -2.035691   -1.233357
C      -0.311635   -2.951811   -0.639615
C      -0.964272   -2.977998   -2.054319
N       0.041678   -1.974192   -2.538750
C      -0.284103   -0.614044   -2.292863
O      -1.140926    0.078437   -2.766115
H       1.024258    2.176396   -0.258299
H      -0.620866    1.938379   -0.867139
H      -0.340696    2.187550    0.867307
H       0.879936   -0.017438    0.978967
H      -0.778016   -0.219829    0.432400
H       1.653924   -0.030453   -1.424096
H       1.801189   -2.467438   -1.271801
H       0.038882   -3.914712   -0.264125
H      -0.927584   -2.481260    0.130165
H      -0.864114   -3.929126   -2.582129
H      -1.994688   -2.625040   -2.141307
