18

C       0.036126    1.413726   -0.887479
O      -0.060239    0.016386   -1.038830
C       0.916918   -0.684631   -0.272933
C       0.802431   -2.141065   -0.555509
C       0.694514   -3.200828    0.320093
N       0.664298   -4.324894   -0.427177
N       0.723674   -4.077261   -1.763736
C       0.815912   -2.754486   -1.839966
N       0.952991   -2.084977   -3.051507
H      -0.131709    1.721505    0.156627
H       1.021384    1.793308   -1.201543
H      -0.735136    1.865729   -1.515821
H       1.917687   -0.305066   -0.544222
H       0.775926   -0.482491    0.801115
H       0.646419   -3.229504    1.397975
H       0.593723   -5.276020   -0.113574
H       0.683744   -2.659637   -3.839195
H       0.456789   -1.202754   -3.043168
