18

C       0.166555    1.316498    0.170760
O      -0.244090    0.007576   -0.203819
C       0.576114   -0.637893   -1.056279
N       0.294430   -1.805955   -1.439503
C       1.151679   -2.474859   -2.321572
C       0.591253   -3.461143   -3.340136
C       1.578655   -3.935531   -2.328274
O       2.911094   -3.612418   -2.737530
C       2.618835   -2.192355   -2.674972
H       1.134256    1.302320    0.687191
H       0.230420    1.982434   -0.698630
H      -0.595802    1.693689    0.853123
H       1.461458   -0.062429   -1.360164
H      -0.443297   -3.720251   -3.142253
H       0.877327   -3.404331   -4.387313
H       1.440938   -4.741670   -1.617949
H       2.831113   -1.677077   -3.619382
H       3.186329   -1.724190   -1.861121
