19

O       0.084063    1.534008   -0.013540
C       0.050268    0.148576    0.070454
C      -1.361974   -0.465654   -0.029853
C      -1.048736   -1.393567    1.188841
C       0.358833   -0.766658    1.311101
O       1.358501   -1.490875    0.553934
C       1.160203   -0.662783   -0.593697
C       1.326279   -1.160004   -1.986416
C       2.307245   -0.146339   -1.406284
H       1.003817    1.815391    0.056607
H      -2.127487    0.281514    0.189325
H      -1.601595   -0.952635   -0.977897
H      -1.690963   -1.207674    2.052964
H      -1.024930   -2.465422    0.984674
H       0.727980   -0.440531    2.285788
H       1.678749   -2.178629   -2.107376
H       0.626354   -0.825023   -2.745492
H       2.264483    0.873317   -1.778261
H       3.298599   -0.499301   -1.143513
