20

C      -0.073764    1.586138    0.011067
C      -0.017193    0.053154    0.014903
C       0.860322   -0.484093   -1.137307
C       2.251851   -0.668185   -0.520546
O       3.302965   -0.838706   -1.097095
N       2.075375   -0.614503    0.837922
C       0.703597   -0.500635    1.255211
C       0.355811   -0.134672    2.664536
C       0.089959   -1.542347    2.159428
H       0.931854    2.015159    0.073851
H      -0.538418    1.950748   -0.910512
H      -0.655005    1.968998    0.854999
H      -1.033922   -0.346323   -0.035899
H       0.521222   -1.464409   -1.490629
H       0.909015    0.178894   -2.003368
H       2.839663   -0.810421    1.465029
H       1.166590    0.006787    3.372309
H      -0.492471    0.520356    2.833597
H      -0.939266   -1.838841    1.985093
H       0.731120   -2.338829    2.522698
