21

O      -0.085453    1.416883    0.253823
C      -0.009671    0.030601   -0.055884
C      -1.413201   -0.538502    0.029365
C      -1.492684   -2.097630    0.027580
C      -1.362999   -2.037251    1.578913
C      -2.024856   -0.628139    1.467926
C      -3.517393   -0.835416    1.313089
C      -3.937194   -1.750722    0.438121
C      -2.917440   -2.537063   -0.358959
H       0.800175    1.786858    0.195435
H       0.380530   -0.127928   -1.075400
H       0.672213   -0.489081    0.634695
H      -2.042935   -0.023380   -0.702634
H      -0.734344   -2.650366   -0.535499
H      -1.895557   -2.790376    2.164874
H      -0.322169   -1.993137    1.906012
H      -1.760346    0.146090    2.188037
H      -4.208542   -0.244431    1.906102
H      -4.991940   -1.953721    0.276465
H      -3.081214   -2.390367   -1.436271
H      -3.043002   -3.614804   -0.181172
