15

C      -0.051714    1.463693   -0.056050
C       0.114674   -0.020129    0.132134
O       1.097791   -0.583653    0.528260
O      -1.038381   -0.667507   -0.222559
C      -1.030898   -2.076988   -0.153608
C      -2.174157   -2.734905    0.637915
O      -2.614630   -3.427648   -0.574631
C      -1.691723   -2.777422   -1.357313
O      -1.559169   -2.824616   -2.534201
H       0.844562    1.976044    0.290253
H      -0.221003    1.681781   -1.114546
H      -0.928173    1.817969    0.492925
H      -0.029527   -2.441188    0.080963
H      -1.893327   -3.446189    1.415854
H      -2.937080   -2.038400    0.990152
