21

C      -0.050415    1.453584    0.079113
C      -0.008921   -0.033237   -0.002332
C      -0.042918   -0.869558   -1.045872
C       0.036801   -2.251229   -0.409536
C      -0.929247   -2.132206    0.829664
C      -0.588847   -3.304430    1.748007
C       0.969944   -3.255849    1.658221
C       1.129338   -2.068043    0.711097
C       0.089544   -0.985572    1.191306
H       0.846780    1.855441    0.568121
H      -0.123512    1.905002   -0.914628
H      -0.906573    1.800809    0.672378
H      -0.110691   -0.649141   -2.102359
H       0.027609   -3.136857   -1.048349
H      -1.980933   -1.885583    0.668674
H      -0.957704   -3.155233    2.767801
H      -1.002911   -4.250176    1.384141
H       1.443370   -3.080406    2.629499
H       1.397431   -4.175366    1.245878
H       2.138269   -1.757191    0.431433
H       0.134522   -0.565871    2.199420
