19

C      -0.319913    1.744246   -0.601052
C      -0.138242    0.227480   -0.679369
C      -0.926787   -0.527609    0.393178
O      -2.337102   -0.350884    0.282072
C      -0.523170   -2.014565    0.427899
O       0.635878   -2.371963    0.359386
N      -1.584477   -2.877034    0.568546
C      -1.457505   -4.253438    0.651960
N      -2.486937   -4.984725    0.789048
H       0.222733    2.244073   -1.408358
H      -1.374860    2.024445   -0.676402
H       0.058029    2.135666    0.349529
H      -0.450933   -0.144294   -1.666845
H       0.913052   -0.052073   -0.571339
H      -0.663724   -0.124976    1.380582
H      -2.564250   -0.364737   -0.654881
H      -2.508237   -2.470628    0.641190
H      -0.415679   -4.574269    0.584791
H      -2.216946   -5.965778    0.834330
