21

C      -0.123866    1.561841    0.171049
C       1.413649    1.465297    0.015901
C       1.776141    0.664097    1.301368
C       0.652582   -0.444577    1.275722
C      -0.000926    0.003896   -0.024119
O      -0.973326   -0.735047   -0.682338
C      -0.924706   -0.327911   -2.061662
C       0.445844    0.396620   -2.320424
C       1.183924    0.287264   -0.975201
H      -0.521819    1.930930    1.120255
H      -0.624698    2.059914   -0.659283
H       2.034742    2.330286   -0.216312
H       2.778997    0.230301    1.251012
H       1.724242    1.290539    2.196205
H       1.057530   -1.457783    1.207693
H      -0.014011   -0.395261    2.140768
H      -1.048600   -1.227927   -2.671491
H      -1.766218    0.343138   -2.275842
H       1.005865   -0.097429   -3.117070
H       0.279190    1.428099   -2.640498
H       1.975952   -0.467228   -1.007558
