19

C       0.515474    1.459355   -0.299660
C       0.029801    0.067716    0.100252
C       0.956667   -0.597515    1.112262
O       1.954983   -0.007925    1.504943
N       0.598744   -1.867911    1.537230
C      -0.613915   -2.511397    1.021568
C       1.345799   -2.659432    2.489428
N       2.464037   -2.087561    2.976120
O       0.952531   -3.766564    2.802323
H       1.511104    1.413583   -0.746544
H      -0.172577    1.903522   -1.024298
H       0.578866    2.117242    0.569958
H      -0.980767    0.117585    0.523419
H      -0.057252   -0.579551   -0.780795
H      -0.563369   -2.643164   -0.062662
H      -0.678770   -3.486572    1.497636
H      -1.507080   -1.930835    1.267804
H       2.732689   -1.160233    2.671551
H       2.988626   -2.631104    3.638615
