16

C      -0.009143    1.501591   -0.104109
C      -0.066156    0.012220    0.025608
N      -1.120558   -0.665733   -0.232317
C      -1.049254   -2.052820   -0.073336
N      -2.019919   -2.852786   -0.293935
C       0.245567   -2.602104    0.380704
C       0.402472   -4.077483    0.575212
N       1.275991   -1.874702    0.626424
O       1.119700   -0.482152    0.439976
H       0.767604    1.787891   -0.819687
H      -0.977410    1.870449   -0.439496
H       0.250270    1.954082    0.857753
H      -2.832240   -2.310185   -0.598277
H       0.184080   -4.598526   -0.361336
H       1.413786   -4.311031    0.910310
H      -0.330006   -4.433425    1.305343
