19

C      -0.095943    1.564748    0.068455
C      -0.022534    0.042309    0.033682
C       0.734834   -0.522074   -1.192894
C       1.798649   -1.126420   -0.302561
C       1.082166   -0.592983    0.960368
O       1.845587    0.299011    1.739226
N       0.956465   -1.947672   -1.140268
C      -0.013457   -2.898210   -0.616162
H       0.866578    2.031355   -0.172340
H      -0.818001    1.926917   -0.670561
H      -0.403470    1.924819    1.053975
H      -1.028158   -0.368968    0.176842
H       0.829558   -0.019643   -2.151845
H       2.877923   -1.185667   -0.418011
H       0.727858   -1.352499    1.663322
H       2.268460    0.932783    1.150014
H      -0.594045   -2.555317    0.251387
H      -0.717941   -3.150702   -1.414631
H       0.514980   -3.812726   -0.330390
