16

C      -0.102879    1.346337   -0.012266
O       0.089743   -0.061892   -0.027133
C       0.731652   -0.530631   -1.140129
C       2.147083   -0.302579   -1.668034
N       1.588838   -1.317935   -2.667590
C       0.827502   -2.040299   -1.509221
C      -0.463660   -1.942151   -2.318083
O      -1.464048   -2.548080   -2.534257
C       0.203340   -0.612064   -2.639368
H       0.853876    1.884359   -0.041320
H      -0.721055    1.673569   -0.858836
H      -0.617283    1.584125    0.919912
H       2.395908    0.659277   -2.124768
H       2.985693   -0.685148   -1.079324
H       1.301686   -2.836119   -0.938697
H      -0.023370    0.195043   -3.333080
