19

O      -0.136556    1.467813    0.082569
C      -0.051653    0.078820    0.040784
C      -1.300006   -0.779962    0.013483
C      -2.655362   -0.082784   -0.039686
C      -3.256252   -0.011064   -1.448895
O      -4.320730    0.934860   -1.387247
C      -2.219980    0.375988   -2.483261
C      -0.931839    0.037338   -2.385274
C      -0.401570   -0.700301   -1.213279
H      -0.559895    1.767917   -0.731918
H       0.790902   -0.266655    0.631402
H      -1.260596   -1.705093    0.579196
H      -3.364459   -0.578314    0.628296
H      -2.553915    0.948869    0.316046
H      -3.657475   -1.003283   -1.720418
H      -4.799938    0.903921   -2.221318
H      -2.583989    0.921258   -3.351917
H      -0.230018    0.312085   -3.169889
H       0.230434   -1.554542   -1.440255
