25

C      -0.069375    1.587893    0.098958
C      -0.016399    0.059235    0.034156
C       0.695128   -0.468378   -1.216466
C       0.752024   -1.997762   -1.288033
C       1.463442   -2.521773   -2.538704
C       1.511724   -4.062177   -2.594455
C       2.186788   -4.577966   -3.780844
C       2.748187   -4.978257   -4.768244
C       3.424964   -5.475295   -5.958162
H       0.937932    2.019391    0.103368
H      -0.600560    2.002886   -0.765046
H      -0.582732    1.933300    1.001861
H       0.489751   -0.328330    0.928386
H      -1.037093   -0.344710    0.066616
H       0.189276   -0.080875   -2.111990
H       1.716739   -0.064400   -1.249913
H       1.258109   -2.384744   -0.392199
H      -0.269967   -2.401250   -1.254502
H       0.960143   -2.149537   -3.439164
H       2.488124   -2.132847   -2.576995
H       2.012564   -4.440114   -1.692450
H       0.487092   -4.456801   -2.553187
H       3.444645   -6.570853   -5.977414
H       2.924585   -5.139273   -6.873365
H       4.462969   -5.126907   -6.003563
