15

O       0.009808   -0.022305   -0.177390
C       0.008091    1.181552   -0.006825
N      -1.176412    1.884172    0.140926
C      -1.296209    3.273951    0.066763
C      -0.235893    4.081944   -0.025492
C       1.136723    3.534159    0.021335
C       1.592317    2.819332    1.269831
C       1.250918    2.005464    0.040120
H      -2.005166    1.311937    0.081879
H      -2.315754    3.639380    0.083770
H      -0.380233    5.151868   -0.106763
H       1.897488    4.073175   -0.534219
H       2.642046    2.868763    1.534862
H       0.908503    2.792354    2.110564
H       2.075798    1.531004   -0.477134
