14

O       0.033028    1.360497    0.408895
C       0.005045    0.023864   -0.062793
C      -1.407793   -0.462191    0.044826
N      -1.668935   -1.726950    0.291161
O      -3.042897   -1.849482    0.289893
C      -3.587953   -0.640243    0.053072
C      -5.050357   -0.505808    0.014029
O      -5.831669   -1.410910    0.170819
C      -2.602267    0.288591   -0.112929
H       0.917566    1.709844    0.265994
H       0.324418   -0.034715   -1.115474
H       0.657055   -0.643539    0.516905
H      -5.379750    0.536898   -0.179810
H      -2.699066    1.343868   -0.303689
