19

C       0.028693    1.497244    0.018901
O       1.192728    0.666765   -0.038694
C      -0.103682    0.035717    0.022510
C      -0.364480   -0.725147    1.309333
C       0.028961   -2.189980    1.110845
O      -0.790710   -2.797631    0.118819
C      -0.738194   -2.185973   -1.139688
C      -1.857755   -1.244989   -1.490348
C      -0.463801   -0.702520   -1.232636
H      -0.102749    2.054980    0.946343
H      -0.192525    2.056780   -0.889671
H       0.217158   -0.267552    2.115124
H      -1.425246   -0.678473    1.582591
H       1.092441   -2.259639    0.836730
H      -0.129343   -2.772769    2.021890
H      -0.334641   -2.837483   -1.911470
H      -2.228032   -1.216653   -2.509133
H      -2.614172   -1.103000   -0.726429
H       0.091634   -0.358150   -2.098684
