17

C      -0.079954    1.547626    0.119390
C       0.067165    0.062109    0.053597
N      -0.849124   -0.893993    0.704966
C       0.608356   -0.937879    1.000668
C       1.323608   -1.688945   -0.160802
N       0.326434   -2.116846   -1.152279
C       0.783619   -0.694079   -1.140705
C       1.402165   -0.072497   -2.252285
C       1.913912    0.482373   -3.191549
H       0.836484    2.045787   -0.212601
H      -0.897293    1.892083   -0.524628
H      -0.293450    1.871623    1.143519
H      -1.282992   -0.390496    1.480314
H       0.995110   -0.815705    2.003884
H       2.316896   -2.115914   -0.116626
H       0.840223   -2.566562   -1.911723
H       2.367182    0.964952   -4.021492
