18

N       0.716551    0.392261   -0.367155
C      -0.341841    0.164657    0.467524
O      -0.454172    0.698544    1.554107
C      -1.399003   -0.801321   -0.075649
C      -0.907369   -2.250902   -0.140674
C      -0.707249   -2.982356    1.180702
C      -1.865001   -3.350994    0.302039
C      -0.010421   -2.556297   -1.224243
C       0.734548   -2.781182   -2.143981
H       1.498466    0.894998    0.023192
H       0.899662   -0.236905   -1.133986
H      -2.246605   -0.734836    0.608599
H      -1.732238   -0.481749   -1.068992
H       0.124718   -3.672527    1.249426
H      -0.897033   -2.404011    2.078144
H      -2.861728   -3.041251    0.596093
H      -1.821277   -4.291010   -0.234868
H       1.382212   -3.009135   -2.954251
