19

O       0.293520    1.039866    0.757331
C       0.021061    0.084734   -0.261905
C      -1.328322   -0.469803   -0.205675
C      -2.461552   -0.883533   -0.143802
C      -3.794300   -1.374589   -0.097943
C      -4.487270   -1.739744    1.200149
C      -4.315533   -2.811846    0.173130
C      -5.357873   -2.659949   -0.937918
C      -4.853499   -1.205330   -1.206622
H      -0.438241    1.665642    0.762432
H       0.194343    0.511344   -1.263549
H       0.764814   -0.709342   -0.127894
H      -3.831038   -1.801549    2.061097
H      -5.473372   -1.329474    1.409544
H      -3.724157   -3.697518    0.370062
H      -5.177499   -3.319806   -1.788612
H      -6.401058   -2.771188   -0.624909
H      -5.569042   -0.391741   -1.051141
H      -4.406234   -1.096827   -2.195912
