13

C       0.004718    1.523385    0.117666
O       1.301542    2.014400   -0.342401
C       2.272746    1.185001   -0.745583
N       2.274084   -0.095152   -0.808722
C       1.080017   -0.631012   -0.389128
C      -0.022829    0.032558    0.055066
C      -0.932074   -1.009190    0.343589
N      -0.414375   -2.193820    0.092432
O       0.879816   -1.951244   -0.378925
H      -0.127560    1.917907    1.132271
H      -0.746094    1.998912   -0.524771
H       3.149182    1.753131   -1.044990
H      -1.943267   -0.959853    0.723529
