12

O      -0.008188   -0.004694    0.003324
C      -0.043333    1.197807    0.009938
C      -1.260508    2.134882    0.031849
C      -0.640460    3.516672    0.030645
C       0.702388    3.376808    0.011482
N       1.069049    2.043960   -0.000617
C      -1.354340    4.731286    0.046987
N      -1.969814    5.714491    0.060726
H      -1.892633    1.941349   -0.840871
H      -1.868254    1.931944    0.919623
H       1.454930    4.151761    0.005345
H       2.014061    1.696072   -0.015348
