18

O       0.050804    1.490012   -0.102286
C       0.034402    0.089731    0.008613
C       0.115289   -0.601746    1.402294
C      -0.920244    0.186504    2.218517
C      -2.108169   -0.295853    1.354610
O      -3.342072    0.331380    1.444654
C      -2.005199   -1.809022    1.572507
N      -0.725544   -1.750079    0.781860
C      -1.326561   -0.581408   -0.006488
H       0.965991    1.783769   -0.146410
H       0.706445   -0.394604   -0.709453
H       1.060303   -0.888539    1.862594
H      -1.012654   -0.120769    3.262974
H      -0.746761    1.264047    2.164769
H      -3.206731    1.282951    1.380319
H      -1.933430   -2.192831    2.595100
H      -2.735977   -2.388035    1.001578
H      -1.909626   -0.799036   -0.901850
