15

C      -0.019014    1.490248   -0.136463
C       1.358178    2.061005    0.106044
C       2.456608    1.353686    0.371903
C       2.529769   -0.151007    0.480424
C       1.184046   -0.754899    0.246078
N       0.875426   -2.021525    0.262410
O      -0.467443   -2.072623   -0.005735
N      -0.991026   -0.819647   -0.189359
C       0.011248    0.000309   -0.037777
H      -0.734594    1.906191    0.585155
H      -0.389966    1.800092   -1.122453
H       1.429431    3.143795    0.052981
H       3.395119    1.878015    0.528751
H       3.257232   -0.548469   -0.239720
H       2.912140   -0.442079    1.467776
