19

C      -0.050898    1.555927    0.030945
C       0.030088    0.033128   -0.018192
O      -1.268722   -0.557899    0.027418
C       0.859709   -0.519203   -1.222928
C       1.636658   -1.698407   -0.644665
C       2.518776   -1.396050    0.550259
O       2.162340   -0.129333    1.115886
C       0.770130   -0.577125    1.178654
C       1.170077   -2.005794    0.767062
H       0.947488    1.987768    0.134347
H      -0.501534    1.953055   -0.886771
H      -0.665967    1.875800    0.877609
H      -1.789689   -0.184494   -0.691113
H       0.180224   -0.844827   -2.016639
H       1.522890    0.245666   -1.638287
H       1.941945   -2.522952   -1.279294
H       3.531768   -1.750996    0.698649
H       0.320704   -0.390801    2.154873
H       0.835994   -2.952624    1.164526
