20

C       0.012559    1.599351    0.054985
C      -0.026724    0.069430    0.052271
C       0.754114   -0.533367    1.228506
O       2.106117   -0.128370    1.092806
N      -1.388580   -0.453477    0.035915
C      -2.377131   -0.180942    0.953894
C      -3.495931   -0.907118    0.615537
C      -3.177950   -1.653519   -0.551213
C      -1.876188   -1.354861   -0.880149
H       1.051256    1.935580    0.042630
H      -0.505872    2.000039   -0.819877
H      -0.464891    2.006781    0.951799
H       0.449925   -0.290870   -0.865029
H       0.318914   -0.181702    2.177111
H       0.650485   -1.627917    1.198347
H       2.604466   -0.478529    1.836429
H      -2.205980    0.507732    1.765173
H      -4.436907   -0.897309    1.144239
H      -3.828087   -2.324882   -1.090887
H      -1.250530   -1.699705   -1.688519
