17

O       0.622596    0.197243   -0.568235
C       0.681712    1.385977   -0.655641
O       0.601263    2.194396    0.423816
C       0.773290    3.595538    0.210978
C       2.244726    3.992418    0.353645
O       3.005977    3.374246   -0.685484
C       3.684516    4.361189   -1.463567
C       3.290430    5.675664   -0.852984
C       2.485122    5.469069    0.182322
H       0.787610    1.944675   -1.602712
H       0.407735    3.885741   -0.781825
H       0.164594    4.095637    0.969703
H       2.600011    3.620206    1.327631
H       4.770325    4.186398   -1.418208
H       3.387261    4.277438   -2.519981
H       3.643381    6.629906   -1.222727
H       2.048017    6.218413    0.829616
