18

O       0.215091    1.178677    0.424804
C      -0.011847   -0.156052    0.034060
C      -1.508284   -0.422192   -0.113423
C      -1.673002   -1.869154   -0.661354
C      -1.391150   -1.245463   -2.045984
C      -1.972205    0.084255   -1.508475
O       0.032972   -1.116521   -2.252386
C       0.708882   -0.437156   -1.291949
N       1.892812   -0.014791   -1.440107
H       1.111822    1.386059    0.124799
H       0.401220   -0.853312    0.783574
H      -2.052171   -0.115322    0.780587
H      -0.984360   -2.644905   -0.315113
H      -2.702441   -2.225721   -0.582498
H      -1.773794   -1.704415   -2.956836
H      -3.060033    0.109165   -1.601554
H      -1.542697    1.015112   -1.885224
H       2.251874   -0.226664   -2.371714
