19

O      -0.335208    1.323508   -0.841735
C       0.036178    0.259448    0.018783
C      -1.177612   -0.519383    0.460600
O      -1.780186   -1.350789   -0.547947
C      -1.244058   -1.979922    0.624957
C      -0.093449   -2.943228    0.430251
C      -0.592090   -4.284591   -0.059467
C       0.016488   -5.548738    0.367930
O      -1.228249   -5.113716    0.918693
H      -0.819269    0.929901   -1.576703
H       0.769766   -0.403230   -0.459864
H       0.517577    0.721441    0.887806
H      -1.902088    0.080022    1.015186
H      -2.012546   -2.357508    1.301936
H       0.625830   -2.540884   -0.289242
H       0.424430   -3.083714    1.386534
H      -1.107177   -4.261932   -1.020658
H      -0.037252   -6.423816   -0.277882
H       0.862830   -5.530499    1.054004
