17

C      -0.007173    1.506546    0.065723
C      -0.013935    0.017772   -0.018422
C      -0.063561   -0.818010   -1.086879
N      -0.048821   -2.150369   -0.696690
C       0.009710   -2.152660    0.603571
C       0.046085   -3.367243    1.464257
N       0.034435   -0.837683    1.099064
C       0.094867   -0.432867    2.428661
O       0.136039   -1.175871    3.375013
H       0.900161    1.898956    0.540298
H      -0.051675    1.915916   -0.946180
H      -0.866861    1.902507    0.619452
H      -0.109840   -0.543629   -2.130266
H       0.951261   -3.400876    2.077325
H      -0.799286   -3.396470    2.157622
H       0.013978   -4.239465    0.809775
H       0.101222    0.666032    2.523765
