21

C      -0.059017    1.633713    0.007368
C       0.062762    0.112333    0.049926
N      -1.234863   -0.530211    0.113915
C      -2.021916   -0.430202    1.358639
C      -2.506410   -1.882253    1.112915
C      -1.285870   -2.001916    0.165446
N      -2.612392   -2.780571    2.230412
C      -3.730273   -3.509721    2.509131
O      -4.757108   -3.495013    1.866181
H       0.929159    2.098207   -0.061663
H      -0.654874    1.947647   -0.854307
H      -0.543932    2.017019    0.911494
H       0.566571   -0.245405   -0.856652
H       0.702945   -0.186392    0.905937
H      -1.393301   -0.367190    2.266259
H      -2.768817    0.368697    1.388618
H      -3.455571   -1.922242    0.581447
H      -1.417619   -2.504234   -0.798276
H      -0.420419   -2.450107    0.687162
H      -1.819170   -2.881452    2.844808
H      -3.592088   -4.134755    3.413889
