16

O       0.190960    1.273266   -0.565744
C       0.032678    0.077887    0.180132
C      -1.328407   -0.461221    0.135609
C      -2.467650   -0.848600    0.106089
C      -3.823957   -1.384761    0.045001
C      -3.824607   -2.941867   -0.100537
O      -5.124262   -3.453696   -0.228453
C      -4.617949   -1.019679    1.229295
N      -5.265579   -0.796469    2.159935
H      -0.446247    1.913304   -0.231272
H       0.731777   -0.643024   -0.257481
H       0.330963    0.210959    1.231918
H      -4.347151   -0.984724   -0.833310
H      -3.287456   -3.187461   -1.019634
H      -3.275940   -3.374097    0.746520
H      -5.575170   -3.361241    0.618882
