19

O      -0.013777    1.479338   -0.022156
C       0.037896    0.066373    0.101137
C      -1.358051   -0.479321   -0.177831
C      -1.425414   -1.999230   -0.106231
C      -1.457307   -2.697216    1.277819
C      -2.992501   -2.453038    1.451857
O      -3.304950   -3.846197    1.747912
C      -2.272677   -3.903708    0.719656
C      -2.813366   -2.681832   -0.084451
H       0.862311    1.830457    0.161435
H       0.755562   -0.370895   -0.612916
H       0.361702   -0.234381    1.110899
H      -2.056999   -0.027488    0.536364
H      -1.666235   -0.138594   -1.174104
H      -0.721053   -2.454074   -0.814401
H      -0.710777   -2.732242    2.071765
H      -3.528985   -1.675761    1.993914
H      -1.930586   -4.876857    0.368282
H      -3.600914   -2.692985   -0.838434
