17

C       0.080388    1.461627   -0.147475
O       1.496309    1.411336    0.179162
C       1.334285    0.099374    0.783944
C       2.119025   -1.126407    0.282197
C       0.946021   -1.823842   -0.455843
O      -0.057121   -2.249616    0.489866
C      -0.901434   -1.092465    0.718107
C      -0.020974   -0.042547    0.067116
O       0.347333   -0.747445   -1.134356
H      -0.481040    2.065676    0.575967
H      -0.104516    1.813627   -1.165515
H       1.300402    0.184148    1.875475
H       2.911071   -0.859470   -0.421947
H       2.534445   -1.726176    1.094192
H       1.185459   -2.649256   -1.125951
H      -1.874023   -1.229393    0.232662
H      -1.035398   -0.949878    1.794301
