17

C       0.020262    1.523499   -0.088338
C      -0.003172   -0.000722    0.090490
O       0.575569   -0.369301    1.339103
C      -1.392591   -0.557508   -0.019151
C      -1.987519   -1.278088   -1.010430
N      -3.286110   -1.522102   -0.564588
C      -3.383905   -0.948662    0.658010
O      -4.535005   -1.032309    1.344500
N      -2.283365   -0.354770    1.032412
H       1.038041    1.896991    0.054962
H      -0.325333    1.807771   -1.087846
H      -0.635092    1.998954    0.648210
H       0.624330   -0.461832   -0.681458
H      -0.128795   -0.275239    1.992552
H      -1.636947   -1.638374   -1.962391
H      -4.011028   -2.035465   -1.035625
H      -4.392565   -0.560510    2.174454
