17

O       0.611214   -0.556373    0.427138
C       0.190980    0.568505    0.274951
N       0.945299    1.648465   -0.086431
C       2.359693    1.579399   -0.335065
C       2.913879    2.122760   -1.680138
C       4.135681    2.712006   -0.896341
C       3.304470    2.552021    0.421917
C       5.327373    1.879358   -0.947747
N       6.273442    1.215603   -0.987765
H      -0.872725    0.843570    0.416408
H       0.478542    2.537616   -0.181472
H       2.649010    0.539819   -0.176515
H       3.120979    1.404159   -2.473619
H       2.296254    2.932776   -2.078316
H       4.412661    3.735390   -1.156793
H       2.806861    3.493919    0.669576
H       3.822953    2.175592    1.304168
