17

C      -0.095012    1.465396   -0.003143
C      -0.005756   -0.025342   -0.028541
C       0.923934   -1.002273   -0.815093
C       0.808551   -2.024344    0.325054
C      -0.100066   -1.047536    1.119815
C      -1.116303   -1.054820   -0.022758
O      -2.461328   -0.796501   -0.035102
C      -0.175140   -2.060980   -0.821303
O      -0.410629   -3.112550   -1.666198
H       0.827226    1.919738    0.376545
H      -0.281929    1.870768   -1.004611
H      -0.920230    1.786061    0.641065
H       1.737592   -0.835869   -1.510464
H       1.511967   -2.784659    0.637736
H      -0.242527   -0.875744    2.179722
H      -2.910443   -1.481759    0.473735
H      -0.644056   -2.760822   -2.533325
