17

C       0.115644    1.465431    0.345231
O       1.232250    2.187479   -0.137581
C       1.574368    2.054625   -1.501785
C       1.969384    0.611059   -1.871254
O       2.397663   -0.121533   -0.686726
C       1.141395   -0.795889   -0.643664
C      -0.105762    0.082174   -0.250259
O      -0.494048    0.188089   -1.657685
C       0.757865   -0.366153   -2.055998
H       0.260447    1.383973    1.428722
H      -0.815023    2.030401    0.170782
H       0.764872    2.386349   -2.169737
H       2.431749    2.719563   -1.637241
H       2.736357    0.590030   -2.651819
H       1.199180   -1.806508   -0.238580
H      -0.881040   -0.443413    0.319022
H       0.709288   -0.982251   -2.954035
