20

C      -0.061012    1.544658    0.073574
C      -0.031132    0.017797    0.031977
O       0.714833   -0.518333    1.125037
C      -1.439615   -0.587031   -0.033508
C      -1.416552   -2.105407   -0.120530
O      -2.759996   -2.569018   -0.140091
C      -2.840033   -3.968281   -0.201557
C      -4.249455   -4.373521   -0.203074
N      -5.349767   -4.722744   -0.205704
H       0.955810    1.940885    0.137264
H      -0.541561    1.957578   -0.818927
H      -0.623424    1.898103    0.947006
H       0.531537   -0.301863   -0.854810
H       0.325891   -0.177417    1.938703
H      -2.009445   -0.290740    0.857264
H      -1.976708   -0.184226   -0.899758
H      -0.891365   -2.433246   -1.033601
H      -0.875228   -2.527135    0.738437
H      -2.361009   -4.365712   -1.112145
H      -2.339520   -4.444424    0.658139
