16

N      -0.081460    1.286977    0.311445
C      -0.022928    0.065848   -0.010032
O       1.103001   -0.668395   -0.227726
C       0.737756   -1.993846   -0.646351
C      -0.723438   -2.145156   -0.205891
N      -1.133157   -0.749022   -0.210609
C      -2.414900   -0.322792    0.300763
C      -2.670679   -0.779961    1.680976
N      -2.853465   -1.181213    2.748932
H       0.846736    1.698159    0.356672
H       0.842534   -2.063756   -1.734581
H       1.414015   -2.705075   -0.169997
H      -1.312645   -2.742492   -0.907803
H      -0.809241   -2.593695    0.794507
H      -2.423412    0.770448    0.277665
H      -3.222097   -0.692929   -0.340754
