12

C      -0.021202    1.482355    0.012460
C       0.017493    0.028831   -0.010897
C       0.056962   -1.173689   -0.028183
C       0.064023   -2.637542   -0.050701
O      -1.198764   -3.215763    0.228305
C       0.599295   -3.128456   -1.346859
N       0.996374   -3.523528   -2.356972
H       0.748707    1.885024    0.678814
H       0.146334    1.897237   -0.986844
H      -0.992537    1.842122    0.367931
H       0.728191   -3.016589    0.735943
H      -1.841024   -2.823245   -0.375134
