17

C       0.178321    1.449180    0.010300
C       0.040416   -0.033947   -0.019106
N       0.046230   -0.759444   -1.137378
N      -0.101588   -1.990989   -0.660235
N      -0.194319   -2.045941    0.658588
N      -0.105701   -0.807266    1.083392
C      -0.153851   -3.146154   -1.514390
C       0.452155   -4.441278   -1.047758
C      -1.046451   -4.299805   -1.147376
H       1.054909    1.744928    0.594129
H       0.282438    1.835952   -1.004492
H      -0.696971    1.910142    0.477330
H      -0.056460   -2.841373   -2.546703
H       0.977864   -5.039519   -1.783031
H       0.882636   -4.441932   -0.053604
H      -1.596155   -4.207923   -0.218376
H      -1.573333   -4.798678   -1.952613
