13

N      -0.111004    1.378140   -0.000351
C       0.026684    0.004588   -0.163797
O       1.094622   -0.517463   -0.415630
C      -1.222731   -0.762761   -0.058020
C      -1.422627   -2.110104    0.141687
N      -2.757906   -2.405727    0.195984
C      -3.374677   -1.255388    0.019342
N      -2.499267   -0.225051   -0.120586
H       0.775469    1.861543    0.050268
H      -0.795134    1.704072    0.666800
H      -0.661631   -2.864975    0.262415
H      -4.444488   -1.111320   -0.017202
H      -2.725635    0.720141   -0.383641
