20

C      -0.289863    1.620345    0.242574
C      -0.049147    0.114076    0.298289
C       0.768920   -0.674106   -0.729318
C       1.115331   -1.725959    0.246516
N       2.203925   -0.861787   -0.270906
C       2.305449   -0.192199    1.072818
C       2.864042    1.220145    1.144980
C       0.848961   -0.596387    1.356131
O       0.465140   -0.710522    2.678300
H       0.582526    2.185637   -0.084492
H      -1.104664    1.844728   -0.454102
H      -0.587464    1.999786    1.226676
H      -1.027191   -0.386741    0.354617
H       0.601527   -0.762304   -1.794897
H       1.117213   -2.808010    0.222728
H       2.940574   -0.850596    1.677195
H       2.462114    1.875998    0.372545
H       2.653107    1.664602    2.123297
H       3.950638    1.191666    1.016959
H      -0.482301   -0.879301    2.716867
