21

C       0.008340    1.535670    0.092931
C       0.018292    0.019035   -0.023930
C       0.650808   -0.487262   -1.323542
C       0.544471   -2.016141   -1.418064
O       1.395627   -2.558937   -2.422803
C       0.872883   -2.689747   -0.105072
C       2.186572   -2.451565    0.608314
C       0.916911   -1.859237    1.155735
O       0.762896   -0.470085    1.090804
H       1.026537    1.930594    0.022953
H      -0.594115    1.978897   -0.705651
H      -0.410556    1.839461    1.055927
H      -1.018064   -0.357106    0.038061
H       0.157989   -0.029321   -2.190418
H       1.704934   -0.187198   -1.347078
H      -0.505897   -2.261683   -1.650096
H       1.141913   -2.167314   -3.265484
H       0.458340   -3.688021   -0.005658
H       2.645848   -3.289871    1.120175
H       2.885222   -1.753136    0.162396
H       0.489812   -2.280738    2.062966
