17

O      -0.131170    1.464055    0.088963
C      -0.009808    0.052131   -0.018128
C       0.745674   -0.637761    1.137211
C       0.020607   -1.980809    1.331965
O       0.515705   -2.991714    1.761733
C      -1.373532   -1.824455    0.815485
C      -2.121572   -0.574451    1.299127
C      -1.405695   -0.555604   -0.009956
O      -2.121693   -0.528287   -1.200053
H       0.729006    1.857088   -0.088597
H       0.450828   -0.220870   -0.978618
H       1.808557   -0.802200    0.950435
H       0.654576   -0.034975    2.048555
H      -1.947850   -2.704567    0.557358
H      -3.200903   -0.655577    1.243417
H      -1.743597   -0.014436    2.146833
H      -2.378526    0.387967   -1.356987
