17

C      -0.134706    1.464293    0.637343
C       0.085349    0.023420    0.237997
C       0.402729   -0.377380   -1.181290
C       0.569322    0.622781   -2.197855
C       0.724044    1.442845   -3.064871
N       1.394066   -0.536107   -0.091803
C       2.565364    0.334744   -0.075263
C       3.715366   -0.354165   -0.673441
N       4.631445   -0.874085   -1.146531
H       0.234014    1.646602    1.652477
H       0.346539    2.167585   -0.044558
H      -1.207102    1.682593    0.633304
H      -0.522336   -0.685038    0.799400
H       0.020818   -1.327985   -1.545824
H       0.855035    2.157953   -3.839522
H       2.435441    1.288040   -0.606334
H       2.807824    0.564731    0.968152
