14

C      -0.028958    1.429404    0.008648
O      -0.037756   -0.003538    0.005169
C      -1.209537   -0.636125    0.012297
C      -1.222984   -2.004309    0.008988
C      -2.458591   -2.714703    0.016469
O      -2.695710   -3.885447    0.015011
O      -3.617422   -1.827041    0.027102
C      -3.457633   -0.518772    0.029177
N      -2.347927    0.132810    0.022642
H       1.025786    1.704877    0.001050
H      -0.530927    1.827645   -0.876121
H      -0.516916    1.823212    0.903197
H      -0.306283   -2.576485    0.000689
H      -4.405160    0.015210    0.037470
