16

C       0.019715    1.580009    0.001392
C       0.030068    0.039078   -0.013889
C       0.658913   -0.471052   -1.227561
C       1.198681   -0.870033   -2.223696
C       0.759237   -0.533057    1.254995
C       0.026301   -0.088492    2.531611
O       0.439405    0.763271    3.266806
C       0.809954   -1.993720    1.235011
N       0.814203   -3.148793    1.268507
H       1.040458    1.971987   -0.011532
H      -0.499040    1.951986   -0.884606
H      -0.486162    1.967176    0.889264
H      -1.006148   -0.323281    0.018488
H       1.663436   -1.238223   -3.105188
H       1.774870   -0.127890    1.293780
H      -0.938653   -0.610507    2.707338
