19

C       0.050380    0.660710    0.557463
O      -0.207434   -0.484353   -0.233896
C       0.670917   -0.696220   -1.319178
C       2.167524   -0.658855   -0.942348
O       2.490055   -1.387246    0.218470
C       0.245317   -2.036029   -1.913473
O       0.545846   -3.112991   -1.012915
C      -0.408623   -3.458096   -0.112308
O      -0.187667   -4.221986    0.775981
H       0.979241    0.554904    1.128510
H       0.098658    1.573151   -0.055920
H      -0.786946    0.752404    1.252910
H       0.514161    0.071037   -2.101176
H       2.742666   -0.990020   -1.823912
H       2.466997    0.375329   -0.745417
H       2.176374   -2.291281    0.096922
H      -0.828170   -2.019360   -2.133328
H       0.793675   -2.246500   -2.834310
H      -1.380473   -2.977385   -0.314928
