18

N       0.010490    1.411321    0.131261
C       0.026590    0.011618    0.030658
C      -1.162594   -0.719948    0.122992
C      -1.149086   -2.109431    0.078911
C       0.053657   -2.792822   -0.072079
C       1.240061   -2.068393   -0.161047
C       1.249269   -0.676723   -0.098478
C       2.550349    0.098965   -0.151592
O       3.708415   -0.696047    0.027512
H       0.676451    1.890733   -0.457868
H      -0.909703    1.812941    0.016251
H      -2.103881   -0.187156    0.229080
H      -2.084283   -2.654984    0.152799
H       0.070467   -3.875961   -0.119361
H       2.188532   -2.580227   -0.281676
H       2.679381    0.571651   -1.136005
H       2.512340    0.918780    0.584432
H       3.653523   -1.089955    0.904825
