16

C      -0.144160    1.666787   -0.060723
C      -0.015183    0.160158   -0.025484
O      -1.270680   -0.380651   -0.239894
C       1.176877   -0.611868   -0.696252
C       2.156877   -0.126889    0.389552
C       0.855957   -0.584649    1.084030
O       0.842972   -1.772701    0.188608
C       0.578750   -0.769235    2.484203
N       0.336516   -0.865148    3.610582
H       0.799162    2.186691    0.104408
H      -0.544056    1.967858   -1.033116
H      -0.858167    1.983700    0.704268
H      -1.151818   -1.342034   -0.207569
H       1.357609   -0.835470   -1.746422
H       2.995588   -0.800017    0.560244
H       2.437458    0.924087    0.435192
