18

C      -0.055477    1.391794    0.024310
O      -0.045425   -0.022057    0.002657
C       0.622002   -0.579393   -1.047045
C       0.657368   -1.947005   -1.270702
N       0.032313   -3.013937   -0.604286
N       1.393147   -2.121105   -2.403787
C       1.731247   -3.377742   -3.030746
N       1.854139   -0.959608   -2.906958
C       1.374792   -0.013504   -2.093605
H       0.961057    1.798866    0.113606
H      -0.521826    1.803389   -0.881110
H      -0.638350    1.688924    0.898047
H      -0.695486   -2.652624    0.002525
H       0.676747   -3.545997   -0.026054
H       0.915503   -4.085244   -2.866777
H       1.866148   -3.198579   -4.097768
H       2.657519   -3.799785   -2.622686
H       1.592979    1.024288   -2.293096
