17

O      -0.147467    1.418429    0.028634
C      -0.053490    0.038340    0.008712
C       0.441073   -0.745030   -1.245902
C      -0.506983   -1.845730   -0.778203
C      -1.333362   -0.887522    0.030722
C      -0.443919   -1.878862    0.774175
C       0.521286   -0.767300    1.207147
C      -0.833537   -3.025328    1.516548
C      -1.148976   -3.994138    2.158129
H       0.743129    1.787204    0.044312
H       0.071502   -0.274875   -2.161253
H       1.512499   -0.959810   -1.331393
H      -0.845896   -2.720578   -1.315924
H      -2.393814   -0.699070    0.102017
H       1.596299   -0.981082    1.219388
H       0.206105   -0.332808    2.158812
H      -1.430784   -4.847362    2.722982
