19

C       0.194726    1.530325   -0.034562
C       0.132394    0.077302    0.038839
C       0.095394   -1.124982    0.100407
C       0.027189   -2.580897    0.159721
C      -1.400833   -3.152632   -0.048118
C      -1.398390   -4.686882   -0.145540
O      -2.666014   -5.213377   -0.462391
C      -2.340444   -2.663384    1.036435
O      -3.161825   -3.357209    1.592746
H       1.026242    1.859749   -0.667142
H      -0.726516    1.947208   -0.455990
H       0.336137    1.973898    0.957030
H       0.678768   -3.011501   -0.611011
H       0.423817   -2.936765    1.120288
H      -1.792215   -2.742608   -0.991114
H      -0.716805   -4.996722   -0.945382
H      -1.005801   -5.103937    0.796862
H      -3.239224   -4.967674    0.275931
H      -2.233852   -1.592049    1.305220
