18

C       0.009024   -1.193476    0.059634
C       0.030154    0.006676   -0.011576
C      -0.019385    1.445121   -0.074516
C       0.442851    2.174699   -1.293848
N       1.286586    2.150310   -0.105196
C       1.418593    3.411425    0.648347
C       0.231488    3.717245    1.563438
O      -0.996262    3.452853    0.901844
C      -1.163912    2.062491    0.733866
H       0.011981   -2.254007    0.113422
H       0.817791    1.616569   -2.147178
H      -0.084924    3.097754   -1.526669
H       2.334070    3.353904    1.249147
H       1.553085    4.226719   -0.071065
H       0.289505    3.115471    2.484643
H       0.224653    4.772997    1.848369
H      -2.115915    1.909191    0.217518
H      -1.219753    1.561593    1.713406
