21

C       0.019421    1.461600    0.015793
C      -0.036909   -0.044889   -0.009316
C      -0.893578   -0.821524    0.961329
C       0.613166   -0.926652    1.042251
C       1.362207   -1.885250    0.099705
C       0.343560   -2.297488   -0.977825
C       0.503350   -0.784990   -1.273326
C       0.282343   -0.180449   -2.632629
O       1.927307   -0.949285   -0.889256
H       1.000931    1.818254   -0.314555
H      -0.742001    1.911681   -0.632329
H      -0.148338    1.840436    1.028978
H      -1.358290   -0.227761    1.744350
H      -1.503840   -1.660843    0.650923
H       1.141209   -0.508642    1.891569
H       2.096664   -2.568941    0.524043
H       0.827299   -2.883497   -1.759354
H      -0.622742   -2.728991   -0.715915
H      -0.788095   -0.146410   -2.861547
H       0.671163    0.841212   -2.676603
H       0.784529   -0.771594   -3.402706
