17

C       0.050120    1.529486   -0.198019
C       0.091893    0.016811   -0.127211
C       1.430352   -0.682020   -0.169138
C       0.660853   -0.664171    1.129268
C       1.110210    0.139714    2.228823
N       1.468403    0.796101    3.112033
C      -1.035724   -0.792781   -0.736506
N      -2.012044   -0.083865   -1.363678
O      -1.053986   -2.010180   -0.671336
H       0.906234    1.968213    0.319275
H       0.081629    1.874108   -1.237609
H      -0.850314    1.932181    0.278970
H       1.471428   -1.637235   -0.677331
H       2.312938   -0.057479   -0.239925
H       0.169760   -1.592882    1.397057
H      -2.026238    0.918641   -1.402795
H      -2.778187   -0.598593   -1.765631
