17

N      -0.090927    1.265492    0.261830
C      -0.028356    0.033886   -0.027646
O       1.169060   -0.611487   -0.171792
C       1.306314   -1.751351   -0.994336
C       1.175615   -3.124139   -0.407914
C       0.105987   -2.586612   -1.339235
C      -1.213480   -2.121060   -0.790208
N      -1.319424   -2.004809    0.664181
C      -1.270298   -0.771425   -0.158347
H       0.850789    1.661540    0.303894
H       2.063365   -1.575108   -1.751821
H       1.839887   -3.900059   -0.770906
H       0.900832   -3.180346    0.638394
H       0.060559   -2.979170   -2.349390
H      -2.090915   -2.443425   -1.343728
H      -2.274693   -2.167913    0.969401
H      -2.165214   -0.166780   -0.244666
