19

C      -0.045792    1.495313    0.034353
C       1.291819    0.764674    0.048966
C       0.008493    0.003080   -0.052632
O      -0.425185   -0.768511    1.065354
C      -1.025659   -1.880589    0.427723
C      -0.179313   -2.336264   -0.799605
C      -1.481708   -2.754409   -1.517204
C      -1.845627   -1.426086   -0.817811
C      -0.441583   -0.844106   -1.212972
H      -0.389221    1.918701    0.971570
H      -0.320033    2.060834   -0.850418
H       1.930660    0.831446   -0.825828
H       1.817796    0.713167    0.995682
H      -1.418652   -2.585435    1.159143
H       0.783816   -2.846924   -0.782309
H      -1.459802   -2.736154   -2.609568
H      -1.979253   -3.657999   -1.152557
H      -2.795896   -0.891609   -0.821422
H      -0.245826   -0.506076   -2.230436
