18

C      -0.147357    1.466102    0.047264
C      -0.178892   -0.024555   -0.047916
C       0.515024   -0.964349   -0.989950
C       1.148954   -0.929213    0.366946
N       0.729537   -2.301397    0.746681
C      -0.163653   -2.486829    1.956255
C      -1.265835   -1.437033    1.749086
C      -1.148362   -1.064812    0.458965
C      -0.291916   -2.108241   -0.326243
H       0.842042    1.851807   -0.222694
H      -0.876152    1.925824   -0.629878
H      -0.376070    1.804642    1.064100
H       0.925710   -0.852174   -1.984278
H       2.047496   -0.443959    0.728640
H      -0.458813   -3.543122    1.955465
H       0.357112   -2.290605    2.900228
H      -1.542771   -0.759168    2.551101
H      -0.728918   -2.979900   -0.812384
