27

C       0.074551    1.581306   -0.198310
C      -0.106327    0.059071   -0.184219
C      -1.563073   -0.482579   -0.167981
C      -2.338026    0.111584    1.024626
C      -2.279652   -0.114580   -1.480266
C      -1.441239   -2.026671   -0.030497
C      -2.680060   -2.902433   -0.275947
C      -2.328048   -4.391872   -0.215120
O      -3.765971   -2.612877    0.607358
H       1.139421    1.832796   -0.236786
H      -0.399143    2.045667   -1.068792
H      -0.338857    2.053009    0.697924
H       0.405258   -0.363492   -1.059499
H       0.416970   -0.345868    0.692813
H      -2.452826    1.195272    0.924262
H      -3.333169   -0.330192    1.094252
H      -1.811757   -0.078400    1.968357
H      -1.787551   -0.572171   -2.346786
H      -3.322933   -0.442889   -1.469676
H      -2.285898    0.968274   -1.636601
H      -0.670995   -2.369890   -0.734942
H      -1.048216   -2.259696    0.971418
H      -3.084858   -2.685081   -1.270380
H      -1.901338   -4.651564    0.762115
H      -3.226904   -4.995839   -0.365739
H      -1.593573   -4.662224   -0.980540
H      -3.465069   -2.792265    1.505447
