20

C       0.122592    1.480564    0.202458
C      -0.022610   -0.004407    0.085331
C       0.191582   -0.752274   -1.002216
C      -0.053374   -2.218590   -0.781373
C       1.217097   -3.108457   -0.621491
C       1.138348   -2.902755    0.917179
C      -0.287466   -2.290582    0.766866
C      -0.478967   -0.847652    1.263666
H       0.860111    1.747803    0.970350
H       0.436028    1.934139   -0.741883
H      -0.822698    1.948137    0.507808
H       0.511278   -0.354725   -1.961435
H      -0.823883   -2.620471   -1.448810
H       1.033547   -4.145735   -0.915953
H       2.125540   -2.762649   -1.122153
H       1.217073   -3.803850    1.530328
H       1.863955   -2.173323    1.288399
H      -1.078008   -2.970150    1.090456
H       0.107173   -0.642069    2.170505
H      -1.524212   -0.622298    1.521433
