18

C       0.185573    1.438187    0.199586
C      -0.062223   -0.020998    0.535667
O       1.204199   -0.662019    0.687930
C       1.107168   -1.998786    1.010405
C       2.159968   -2.594010    1.891272
O       2.908366   -1.673287    2.665009
C       2.003544   -1.056451    3.467780
N       0.792037   -1.444872    3.444269
C       0.720931   -2.453034    2.416856
H       0.760010    1.530542   -0.726571
H      -0.765382    1.964089    0.073020
H       0.746949    1.925029    1.001981
H      -0.636302   -0.121675    1.466502
H      -0.632359   -0.514660   -0.267147
H       0.748488   -2.654932    0.214926
H       2.710752   -3.493605    1.649317
H       2.412411   -0.273353    4.093277
H       0.013882   -3.261017    2.561519
