19

O       0.106989    1.344915   -0.216665
C       0.060958   -0.032553    0.092452
C      -1.372505   -0.550284    0.116769
C      -2.419033    0.221465    0.960322
C      -3.336304    0.152137   -0.281253
N      -2.152141   -0.189801   -1.103525
C      -2.344177   -1.177361   -2.148291
C      -1.113534   -1.422208   -2.909370
N      -0.143514   -1.627261   -3.502070
H      -0.439905    1.448837   -1.006768
H       0.654547   -0.626174   -0.620195
H       0.511567   -0.157333    1.083894
H      -1.387996   -1.633135    0.320012
H      -2.778716   -0.262180    1.867818
H      -2.079817    1.234051    1.180402
H      -4.060832   -0.674541   -0.217041
H      -3.860755    1.059161   -0.597103
H      -2.705223   -2.149473   -1.761501
H      -3.107708   -0.809876   -2.844524
