19

C       0.085828    1.188492   -0.308039
O      -0.047889   -0.123600    0.214150
C      -1.334537   -0.654810    0.082043
C      -2.359368    0.022469    0.843666
C      -3.198950    0.605681    1.477728
C      -1.796080   -1.266652   -1.229799
C      -0.599420   -1.860600   -1.984494
C      -0.271542   -2.752837   -0.745474
C      -1.474092   -2.149714   -0.010355
H       1.135836    1.465804   -0.193234
H      -0.185941    1.227595   -1.372022
H      -0.540060    1.903960    0.240567
H      -3.939857    1.113238    2.044292
H      -2.756597   -1.003068   -1.655598
H      -0.912130   -2.451007   -2.848093
H       0.172226   -1.154281   -2.300588
H      -0.407258   -3.816059   -0.953139
H       0.699212   -2.597622   -0.271202
H      -2.144159   -2.675476    0.658704
