20

C      -0.168652    1.633173   -0.270533
C       0.058808    0.141832   -0.109071
N       1.035982   -0.520951   -1.058740
C       2.383262   -0.062654   -0.675344
C       1.741569   -1.104173    0.151258
C       0.773044   -0.459379    1.134395
C       1.220520    0.298177    2.401795
C       0.357461   -0.731676    3.152548
O      -0.037575   -1.359807    1.913230
H       0.741363    2.220101   -0.112852
H      -0.539018    1.850019   -1.277672
H      -0.919100    1.982961    0.446464
H      -0.888096   -0.395770   -0.216848
H       3.149259   -0.374681   -1.378709
H       2.527834    0.937493   -0.273446
H       2.068322   -2.138162    0.189617
H       2.292837    0.263646    2.603361
H       0.875831    1.332100    2.467050
H       0.901449   -1.424512    3.805373
H      -0.504882   -0.331990    3.698362
