19

C       0.029514    1.273816    0.266096
O       0.034818   -0.123201   -0.021418
C      -1.236139   -0.664464   -0.107136
C      -2.291045   -0.344597   -1.161819
C      -2.771776   -1.838624   -1.109582
C      -1.723933   -2.136104   -0.052491
O      -1.092864   -3.345958    0.061476
C      -1.873248   -1.231339    1.145718
O      -0.934630   -1.562601    2.141729
H       1.072987    1.583802    0.351077
H      -0.449142    1.842224   -0.541305
H      -0.494071    1.489346    1.207276
H      -3.037030    0.413599   -0.900469
H      -1.846558   -0.092956   -2.127559
H      -3.812126   -2.009329   -0.813741
H      -2.575070   -2.364297   -2.046101
H      -0.739626   -3.370610    0.964656
H      -2.830079   -0.905209    1.558462
H      -0.118363   -1.091798    1.918520
