17

C       0.101602    1.529235   -0.104273
C      -0.086289    0.014847    0.092157
C       0.667212   -0.483150    1.295501
N       2.006470   -0.549000    1.193172
C       2.617199   -0.978626    2.295856
N       2.045393   -1.331396    3.440244
C       0.703930   -1.218872    3.427485
N       0.043614   -1.539011    4.560164
N      -0.033223   -0.802955    2.380778
H       1.162137    1.771574   -0.211964
H      -0.424154    1.867560   -1.001660
H      -0.292909    2.086698    0.751074
H      -1.144148   -0.227453    0.217606
H       0.292130   -0.512074   -0.790024
H       3.702979   -1.052476    2.256275
H       0.555155   -1.938933    5.326440
H      -0.960606   -1.553510    4.551933
