16

C       0.183210    1.443090   -0.117131
N      -0.015717    0.007096   -0.102190
C       0.134641   -0.890168   -1.103915
C      -0.203321   -2.100595   -0.538237
C      -0.197352   -3.475832   -1.128316
C       1.174870   -4.126974   -1.004009
O       1.777386   -4.622376   -1.919199
N      -0.530325   -1.876729    0.767139
N      -0.418913   -0.605897    1.028012
H       1.214614    1.685340   -0.386412
H      -0.497848    1.919667   -0.827342
H      -0.026441    1.806322    0.888658
H       0.449125   -0.607598   -2.094780
H      -0.908003   -4.092563   -0.564149
H      -0.487540   -3.478646   -2.181618
H       1.592664   -4.103269    0.026909
