17

C      -0.097499   -1.197737   -0.135894
C       0.010807   -0.015643    0.043742
C       0.113647    1.416914    0.281053
O       1.295955    1.923036   -0.324233
C       1.416042    3.307251   -0.207029
C       2.091035    3.972078    1.041211
C       3.443018    3.345939    0.627121
C       2.760427    3.935919   -0.630537
O       2.374868    5.126443    0.162058
H      -0.188687   -2.243072   -0.299904
H      -0.771418    1.928645   -0.131146
H       0.120282    1.614993    1.364827
H       0.530860    3.847570   -0.565065
H       1.692515    4.186207    2.033075
H       4.324234    3.889492    0.969052
H       3.542667    2.261702    0.685927
H       3.157229    4.100825   -1.631876
