18

N      -0.194621   -1.195795   -0.227793
C      -0.111968   -0.048938   -0.101254
C       0.002859    1.397745    0.058308
C      -0.236897    2.039734    1.430316
C       0.982386    1.921675    2.330578
C       2.023822    0.836002    2.059034
C       2.508224    1.138895    0.613027
C       1.431413    2.071240    0.045910
C       0.964149    2.951994    1.239357
H      -0.634281    1.876552   -0.690630
H      -1.216179    2.270082    1.831766
H       0.809472    2.249398    3.349809
H       2.844691    0.900329    2.779085
H       1.598702   -0.168062    2.143351
H       3.467846    1.666502    0.629374
H       2.635106    0.234272    0.011695
H       1.689137    2.557685   -0.893778
H       1.054733    4.023416    1.350644
