11

O      -0.029319    0.014881    0.001638
C       0.010481    1.210456    0.007885
C       1.338099    2.019413   -0.000162
C       1.374778    2.832805   -1.215555
C       1.348465    3.469509   -2.233424
C       1.397646    2.819455    1.223173
C       1.390467    3.445066    2.248209
H      -0.894540    1.850732    0.019862
H       2.148028    1.280075   -0.011802
H       1.348039    4.041334   -3.128711
H       1.406756    4.006747    3.149750
