20

C      -0.864185    1.867579   -1.827570
O      -1.010105    1.323721   -0.533702
C      -1.799195    0.197166   -0.430441
C      -1.934292   -0.930094   -1.407282
C      -3.177805   -0.195227   -0.910519
N      -3.657518   -0.489164    0.497198
C      -2.812686   -1.535316    1.120062
C      -2.276006   -0.162040    0.998380
C      -2.048841    0.772765    2.149364
H      -0.306577    2.799482   -1.714384
H      -0.302744    1.197732   -2.493548
H      -1.838678    2.088059   -2.286646
H      -1.712191   -0.648229   -2.432754
H      -1.691243   -1.967193   -1.196842
H      -3.895802    0.240354   -1.593435
H      -3.186761   -1.824161    2.098887
H      -2.438724   -2.366877    0.535149
H      -1.025982    0.682412    2.531594
H      -2.201135    1.811390    1.843420
H      -2.743691    0.542543    2.961842
