22

C      -0.079220    1.781013    0.627484
C      -0.347069    0.296654    0.669887
O       0.250356   -0.523650   -0.338203
C       0.639184   -0.745825    1.032727
C       2.082034   -0.399153    1.347378
C       0.182099   -2.080619    1.596122
C       0.633702   -3.278988    0.783390
C       0.035213   -2.199356    3.071224
N      -1.153359   -2.241061    2.200447
H       0.977064    2.009544    0.479329
H      -0.642078    2.235355   -0.194577
H      -0.411416    2.252814    1.558778
H      -1.400042    0.057617    0.834845
H       2.417327    0.464994    0.772648
H       2.211353   -0.188211    2.413548
H       2.736578   -1.238679    1.093765
H       1.725486   -3.361923    0.759377
H       0.225850   -4.195678    1.214848
H       0.275999   -3.187538   -0.245963
H       0.279458   -3.134907    3.567951
H       0.197614   -1.312369    3.679371
H      -1.637440   -1.349361    2.253271
