20

C      -0.060902    1.401079   -0.118490
N      -0.031193   -0.040180   -0.075629
C      -1.239614   -0.843956   -0.008269
C      -0.728034   -2.278406   -0.042051
C       0.107340   -2.663481   -1.230525
C       0.781799   -2.224774    0.056272
C       1.662016   -3.151925    0.853039
C       1.134724   -0.755486    0.063233
O       2.247799   -0.280315    0.176130
H       0.972576    1.752000   -0.102073
H      -0.554228    1.764111   -1.028706
H      -0.593193    1.815727    0.748024
H      -1.795441   -0.638667    0.919227
H      -1.910271   -0.616114   -0.848582
H      -1.300210   -3.039543    0.474224
H       0.171504   -3.720203   -1.468742
H       0.134658   -2.004208   -2.092970
H       1.350109   -4.193478    0.731932
H       2.699757   -3.058195    0.519801
H       1.635466   -2.909289    1.920551
