19

C       0.252569    1.438199    0.304873
C       0.101937   -0.076749    0.023464
C       0.626951   -0.501687   -1.355401
C      -0.171090    0.066720   -2.531072
O       0.245925   -0.475001   -3.773971
C       0.814789   -0.833419    1.127144
O       1.897893   -1.361953    1.023617
C       0.110789   -0.936854    2.491938
O      -0.995097   -0.518800    2.712767
H       1.301595    1.743010    0.229518
H      -0.325247    2.020358   -0.416552
H      -0.113438    1.691975    1.302722
H      -0.964906   -0.318431    0.115399
H       1.680900   -0.208248   -1.444266
H       0.608091   -1.594133   -1.433337
H      -1.228404   -0.205507   -2.432553
H      -0.122124    1.166238   -2.545085
H       1.164522   -0.222531   -3.912036
H       0.731369   -1.461369    3.249344
