19

C       0.030540    1.563236   -0.090569
C       0.069000    0.046234    0.003011
O       0.826488   -0.481032   -1.096635
C       1.242001   -1.809877   -0.744052
C       1.494448   -1.765172    0.750250
C       2.254639   -0.550622    1.245948
O       3.058104    0.246353    0.427769
C       0.746598   -0.537480    1.241815
O       0.007219   -0.575573    2.422656
H       1.035447    1.986204   -0.013177
H      -0.418145    1.880914   -1.035725
H      -0.579810    1.964973    0.724804
H      -0.958394   -0.353129   -0.025665
H       0.457303   -2.541596   -0.986011
H       2.127523   -2.036838   -1.345945
H       1.512365   -2.685544    1.322072
H       2.705658   -0.660808    2.227471
H       2.623102    0.290076   -0.435338
H       0.142381    0.257309    2.887541
