16

C      -0.082282    1.574471   -0.012871
C       0.093238    0.059098   -0.009721
C       0.841161   -0.550542   -1.208858
C       1.507526   -1.819554   -0.633631
N       1.696117   -1.459587    0.761222
C       0.897266   -0.439383    1.203180
O       0.832684   -0.022875    2.339905
H       0.878751    2.078854   -0.160354
H      -0.760225    1.895977   -0.809317
H      -0.487193    1.902080    0.948035
H      -0.895300   -0.414004    0.082597
H       0.196241   -0.772531   -2.061701
H       1.616145    0.145942   -1.547400
H       0.856706   -2.699719   -0.741964
H       2.460721   -2.049074   -1.120077
H       2.205893   -2.026729    1.419814
