16

O       0.248427    0.322480   -0.734250
C       0.251512    1.466640   -0.352403
N       1.285649    2.033403    0.377936
C       2.700982    1.914194    0.158161
C       3.205328    1.654574   -1.264439
C       2.775724    2.865040   -2.085573
O       1.359108    3.066358   -2.188435
C       2.076969    3.833435   -1.220309
C       2.006824    3.268305    0.188910
H      -0.609249    2.151710   -0.448492
H       3.281354    1.538275    0.996515
H       4.298420    1.590646   -1.258356
H       2.810005    0.719962   -1.671469
H       3.338339    3.151813   -2.970965
H       2.084318    4.908627   -1.371884
H       2.059119    3.950754    1.031537
