17

C       0.003981    1.533515    0.064620
C       0.029287    0.016380    0.025466
C       0.661361   -0.553109   -1.249247
C       0.921780   -2.037802   -1.142300
N       0.864636   -2.800609   -2.148974
O       1.322114   -2.484463    0.089685
C       0.774166   -1.820420    1.234222
O       0.801133   -0.439173    1.141694
H       1.020362    1.932669   -0.005792
H      -0.582866    1.925886   -0.770974
H      -0.440933    1.884360    0.999357
H      -0.996694   -0.376149    0.130595
H       0.046510   -0.368266   -2.131772
H       1.628356   -0.056329   -1.400484
H       1.110487   -3.755201   -1.876598
H      -0.257934   -2.184707    1.374517
H       1.399433   -2.115379    2.078185
