12

N       0.161360   -1.142712   -0.005210
C       0.043480    0.009903    0.002540
C      -0.064876    1.416220    0.011634
C      -1.186061    2.247342    0.032001
C      -0.716211    3.589014    0.032465
C       0.657977    3.540010    0.012860
N       1.039590    2.229730    0.000340
C      -2.537253    1.823430    0.048863
N      -3.647789    1.496828    0.062824
H      -1.330591    4.474152    0.045861
H       1.389742    4.331130    0.006781
H       1.987906    1.891658   -0.014911
