19

C       0.164237    1.282043   -0.391920
C       0.085290   -0.133923    0.199958
C       0.566157   -0.175889    1.669987
N       1.933355    0.296741    1.834127
C       2.978978   -0.583794    1.640778
N       4.217632   -0.085452    2.026119
O       2.823757   -1.705233    1.196270
C      -1.350031   -0.617235    0.141391
O      -1.743552   -1.578265   -0.465383
H       1.174369    1.681319   -0.271241
H      -0.080419    1.279346   -1.457709
H      -0.531711    1.964021    0.112291
H       0.696883   -0.829664   -0.379942
H      -0.080500    0.455666    2.289293
H       0.494608   -1.204617    2.037385
H       2.082835    1.065864    2.466152
H       4.370978    0.908224    1.939945
H       4.981009   -0.647013    1.679994
H      -2.061681    0.020500    0.723747
