12

F       0.003929    0.031691    0.003114
C      -0.027683    1.357526    0.010729
C      -1.240220    2.028132    0.030417
C      -1.207939    3.416206    0.037523
C       0.029818    4.062721    0.024649
N       1.192767    3.418852    0.005762
C       1.169379    2.079479   -0.001196
C       2.424914    1.380565   -0.021606
N       3.427110    0.804322   -0.037998
H      -2.165047    1.463726    0.039595
H      -2.126575    3.991312    0.052803
H       0.084857    5.147378    0.029805
