19

C       0.306109   -0.393870    1.240376
N      -0.217157   -0.148471   -0.111145
C       0.592368   -0.608602   -1.165204
C       0.794172   -1.872748   -1.683357
O       0.176481   -2.986069   -1.174426
C       1.689386   -1.771282   -2.777253
C       2.016301   -0.434201   -2.894248
N       1.352552    0.268725   -1.931655
C       1.449119    1.693155   -1.698879
H       0.491444   -1.456534    1.451809
H       1.248433    0.147569    1.366909
H      -0.406680   -0.007000    1.975730
H      -1.148580   -0.540422   -0.191108
H       0.425820   -3.742024   -1.712799
H       2.047972   -2.573065   -3.405817
H       2.674884    0.065815   -3.586552
H       1.444799    2.229386   -2.651772
H       0.586287    1.998939   -1.105272
H       2.362868    1.957127   -1.152523
