17

N      -0.074200    1.414885   -0.041498
C      -0.000239   -0.025629    0.025377
C       0.770336   -0.736940   -1.065612
C       0.086825   -1.741738   -1.613590
C      -1.283061   -1.929032   -0.998493
C      -1.293143   -0.908027    0.135512
O      -0.778645   -1.464041    1.400236
C       0.280644   -0.590012    1.410342
N       1.135711   -0.320689    2.286930
H       0.521650    1.821775    0.672300
H       0.236370    1.759009   -0.942937
H       1.776512   -0.431267   -1.329873
H       0.456740   -2.383058   -2.406066
H      -2.088043   -1.754377   -1.723458
H      -1.429362   -2.939796   -0.599326
H      -2.231740   -0.384635    0.315135
H       0.999874   -0.873228    3.134878
