17

O       0.223015    1.528818   -0.307309
C       0.009301    0.169180    0.006480
C       0.884108   -0.630981   -0.968500
C       2.346144   -0.267488   -0.782152
O       3.077381   -0.844797   -0.016888
C       0.198016   -0.256768    1.503809
C      -1.168201   -0.953002    1.423354
O      -1.746396   -1.730001    2.124748
C      -1.476838   -0.324124    0.055003
H      -0.250696    2.074889    0.328590
H       0.762615   -1.700921   -0.778033
H       0.564978   -0.402814   -1.990988
H       2.706512    0.594983   -1.380391
H       1.064357   -0.875660    1.747057
H       0.178928    0.598775    2.189293
H      -2.182331    0.510667    0.142135
H      -1.828333   -0.994184   -0.733746
