20

C      -0.032197    1.402685   -0.122863
N      -0.005743   -0.038799   -0.084909
C      -1.209916   -0.835727    0.060229
C      -0.720825   -2.285798    0.035351
C      -1.499289   -3.309407    0.823861
C       0.030966   -2.675224   -1.204633
C       0.791940   -2.211521    0.025551
C       1.166552   -0.755822    0.020978
O       2.280564   -0.277660    0.089875
H       1.002100    1.748800   -0.165452
H      -0.576008    1.769387   -1.002186
H      -0.511036    1.818597    0.774011
H      -1.714976   -0.610875    1.013153
H      -1.926548   -0.623694   -0.745725
H      -2.517351   -3.421187    0.432355
H      -1.017932   -4.290700    0.774894
H      -1.576588   -3.025165    1.879234
H       0.087138   -3.733764   -1.436089
H       0.011178   -2.023348   -2.072792
H       1.437048   -2.899055    0.556747
