17

C      -0.000388    1.578023   -0.050808
C       0.084081    0.064955   -0.072432
C       0.668131   -0.774929   -1.153182
C       1.339579   -0.744478    0.251122
C       2.550160   -0.129433   -0.371446
O       3.666250    0.074962    0.001325
C       1.888180   -0.086429   -1.810132
C       2.609691   -0.889671   -2.773235
C       3.213294   -1.569722   -3.559601
H       0.890691    2.059362   -0.460095
H      -0.864892    1.923209   -0.627909
H      -0.119910    1.934592    0.976977
H      -0.783098   -0.410447    0.383042
H       0.155833   -1.615918   -1.600479
H       1.348986   -1.474882    1.050798
H       1.698514    0.915222   -2.208912
H       3.751869   -2.161263   -4.257815
