20

C       0.053125    1.545098    0.054663
C      -0.076205    0.022498   -0.069452
C       0.728099   -0.552251   -1.206481
C       2.276389   -0.467910   -1.349261
C       1.989092   -1.526759   -2.457668
C       0.872433   -2.068711   -1.513071
C       1.140053   -0.683656   -3.415860
O       0.269532   -0.022496   -2.473666
H       1.088079    1.839330    0.259078
H      -0.257219    2.032875   -0.872576
H      -0.568713    1.925060    0.870595
H       0.244183   -0.463207    0.859883
H      -1.127545   -0.251086   -0.222481
H       2.702529    0.493276   -1.647754
H       2.811243   -0.884541   -0.493694
H       2.763316   -2.161333   -2.887009
H       1.268549   -2.643089   -0.673538
H       0.009910   -2.570367   -1.959962
H       1.721210    0.056580   -3.979393
H       0.549462   -1.282738   -4.119680
