19

C      -0.135515    1.722022    0.004349
C       1.171078    0.971725   -0.048025
C       2.230162    0.913586   -1.139206
C       3.214262    0.883140    0.051605
O       2.131104    0.989316    1.010350
C      -0.102826    0.215317    0.044846
C      -0.554219   -0.750603    1.130643
C      -1.004502   -1.619705   -0.064897
O      -0.583190   -0.610637   -1.017774
H      -0.395372    2.238577    0.924230
H      -0.468624    2.204752   -0.910279
H       2.196524    0.017499   -1.761043
H       2.298301    1.798629   -1.774473
H       3.775743   -0.049410    0.178300
H       3.901758    1.732214    0.128513
H       0.251275   -1.155222    1.745661
H      -1.360772   -0.391312    1.772433
H      -0.455546   -2.558303   -0.201443
H      -2.079509   -1.815800   -0.138360
