19

C       0.019940    1.508333    0.087698
C      -0.020926    0.016181    0.000442
C      -0.011448   -0.746422   -1.098347
C      -0.054942   -2.227442   -0.789249
C      -0.044666   -2.272880    0.742912
C      -0.746153   -3.396558    1.460098
N       1.202941   -1.707323    1.307962
C      -0.027970   -0.861193    1.214285
H       0.923517    1.848579    0.609223
H       0.004953    1.969590   -0.903570
H      -0.834676    1.898658    0.655391
H       0.053484   -0.367040   -2.112903
H      -0.958589   -2.703344   -1.195410
H       0.804032   -2.764444   -1.209684
H      -0.243054   -4.354621    1.282091
H      -0.765689   -3.225311    2.541885
H      -1.781839   -3.498995    1.118015
H       1.287375   -2.040656    2.268708
H      -0.507903   -0.543861    2.135920
