15

N      -0.015509    1.384288    0.144540
C      -0.046354    0.006990    0.040709
C      -1.220422   -0.710677   -0.010333
O      -2.416386   -0.007325   -0.088114
C      -1.150417   -2.118673   -0.067630
C       0.041100   -2.791410   -0.058694
C       1.297190   -2.084249   -0.001826
O       2.426292   -2.549179    0.017321
N       1.133806   -0.673242    0.035443
H       0.736010    1.843764   -0.351429
H      -0.918821    1.790008   -0.062167
H      -2.901103   -0.118334    0.737127
H      -2.086942   -2.666527   -0.128844
H       0.091411   -3.871285   -0.097507
H       2.005696   -0.167470    0.116640
