19

C       0.040573    1.568393   -0.007681
C       0.062292    0.060931   -0.010741
C       0.860316   -0.784009   -1.028379
C       0.695854   -1.920411    0.010369
C      -0.816844   -2.218890    0.056236
O      -1.113115   -2.537313    1.441480
C      -0.845131   -1.145686    1.684988
C       0.600806   -0.843449    1.160399
C      -1.263404   -0.724358    0.251615
H       1.055576    1.980666   -0.002924
H      -0.471651    1.957058   -0.896197
H      -0.483026    1.961439    0.871381
H       0.442390   -0.937447   -2.030576
H       1.897015   -0.443573   -1.116691
H       1.370691   -2.773458    0.060286
H      -1.255566   -2.912848   -0.659840
H      -1.211263   -0.764322    2.637126
H       1.466132   -0.615585    1.779011
H      -2.257541   -0.396349   -0.046790
