13

N      -0.080267    1.379522    0.152925
C       0.056070   -0.000280    0.046912
N      -1.026496   -0.789762    0.019662
N      -0.537592   -2.038652   -0.004537
C       0.817005   -2.079665   -0.007629
C       1.532958   -3.347044   -0.039290
O       0.978391   -4.426714   -0.064521
C       1.246293   -0.758494    0.028490
H       0.610694    1.899930   -0.368994
H      -1.015951    1.686543   -0.078378
H      -1.152974   -2.835219   -0.025648
H       2.638566   -3.257626   -0.039227
H       2.264764   -0.405325    0.049582
