18

N       0.606037   -0.724931    0.408522
C      -0.187131   -0.115583   -0.511192
O       0.202482    0.674700   -1.346728
C      -1.675470   -0.473464   -0.399353
O      -1.954274   -1.580239    0.444298
C      -2.234779   -2.789730   -0.218732
C      -1.065033   -3.706621   -0.660369
O      -1.571740   -4.786181    0.152390
C      -2.578488   -3.938038    0.741184
H       1.575459   -0.460924    0.466823
H       0.189850   -1.294103    1.125874
H      -2.183167    0.402449    0.021696
H      -2.061511   -0.620774   -1.414186
H      -2.978499   -2.623280   -1.007509
H      -1.019489   -3.976934   -1.721243
H      -0.079592   -3.357506   -0.329183
H      -2.360673   -3.690086    1.788147
H      -3.582156   -4.370087    0.667803
