20

C      -0.019789    1.601594    0.094653
C      -0.038068    0.071378    0.056354
C       0.641773   -0.517871   -1.193256
N       2.063704   -0.238176   -1.270068
C       2.834155   -1.371573   -1.407502
O       4.037456   -1.419128   -1.563987
C       1.872483   -2.520955   -1.325480
C       2.360081   -3.928554   -1.380383
C       0.635358   -2.027865   -1.221294
H       1.004482    1.987323    0.129136
H      -0.512276    2.028750   -0.786327
H      -0.539708    1.977350    0.980639
H       0.458603   -0.336380    0.943901
H      -1.075265   -0.285783    0.076681
H       0.123510   -0.124234   -2.083973
H       2.449966    0.675351   -1.437303
H       3.034872   -4.135818   -0.542415
H       1.535889   -4.645438   -1.352811
H       2.945331   -4.094595   -2.291173
H      -0.286242   -2.592019   -1.140850
