14

N      -0.158736    1.275975   -0.380975
C      -0.020468    0.057587   -0.113953
N       1.027521   -0.835837    0.144720
C       0.138668   -1.914892    0.579336
C       0.163993   -2.185291    2.072433
O       0.973168   -1.677676    2.803939
C      -1.075497   -1.062237    0.045587
C      -2.180561   -0.818908    0.953416
N      -3.054580   -0.651240    1.690577
H       0.731240    1.775976   -0.396611
H       1.838597   -0.588528    0.699870
H       0.277169   -2.864994    0.047750
H      -0.595090   -2.906749    2.438406
H      -1.451677   -1.421666   -0.914894
