23

C      -0.046525    1.528393   -0.055243
C      -0.003606   -0.004198    0.024263
C       0.817901   -0.454124    1.240314
C      -1.434741   -0.585521    0.044130
O      -2.112508   -0.041585   -1.082144
C      -3.357945   -0.658068   -1.352793
C      -3.164488   -2.114658   -1.776447
C      -2.238465   -2.791308   -0.801784
C      -1.478671   -2.094414    0.040841
H       0.966460    1.937175   -0.128438
H      -0.621763    1.861965   -0.919803
H      -0.510927    1.951259    0.844362
H       0.476853   -0.385919   -0.886215
H       0.322187   -0.173799    2.177749
H       0.988455   -1.533842    1.259180
H       1.799164    0.030607    1.232363
H      -1.926138   -0.221734    0.969900
H      -4.007812   -0.614253   -0.463143
H      -3.827588   -0.065008   -2.142935
H      -4.134001   -2.628357   -1.806699
H      -2.757021   -2.163515   -2.795522
H      -2.218980   -3.878030   -0.784902
H      -0.863313   -2.603895    0.775512
