23

C      -0.615444    1.274929    0.222557
C       0.160477   -0.021648    0.008451
C       1.094164   -0.011648   -1.209659
O       2.091235   -0.997121   -0.960584
C       2.098872   -1.374412    0.413448
C       1.815945   -2.880697    0.694010
C       2.991900   -2.872091    1.707421
C       3.502756   -1.564779    1.041462
C       1.160897   -0.385059    1.116552
H       0.067141    2.122646    0.352776
H      -1.264714    1.496986   -0.631298
H      -1.249715    1.216526    1.112835
H      -0.548480   -0.851896   -0.108159
H       0.583683   -0.254250   -2.148474
H       1.562414    0.979554   -1.326633
H       0.819849   -3.156567    1.052791
H       2.051625   -3.470781   -0.195347
H       2.654118   -2.708019    2.734287
H       3.663896   -3.732208    1.698775
H       4.235393   -1.769473    0.256337
H       3.882245   -0.765369    1.684288
H       1.718326    0.510822    1.419941
H       0.690558   -0.804395    2.009858
