23

C      -0.154431    1.622711    0.105919
C      -0.110532    0.101206   -0.126101
C      -1.426914   -0.526468   -0.057802
C      -2.526757   -1.016368   -0.003375
C      -3.852343   -1.634350    0.090321
C      -3.744704   -3.172184    0.148530
C      -4.630868   -1.088836    1.283330
C      -5.370562    0.216332    1.183556
C      -6.137907   -1.082593    1.262475
H       0.851560    2.049137    0.045293
H      -0.782310    2.111177   -0.644209
H      -0.568196    1.852885    1.091511
H       0.343050   -0.105566   -1.104283
H       0.554357   -0.361449    0.614930
H      -4.417317   -1.372062   -0.816462
H      -4.742412   -3.620274    0.180140
H      -3.212402   -3.560031   -0.724060
H      -3.197979   -3.484679    1.043495
H      -4.161543   -1.302669    2.240047
H      -5.376872    0.874796    2.045010
H      -5.351969    0.735655    0.230762
H      -6.635087   -1.429991    0.361989
H      -6.670080   -1.316188    2.177987
