21

C       0.013473    1.409559   -0.264849
O      -0.013499    0.124528    0.322428
C      -1.227973   -0.542294    0.156789
C      -1.492418   -1.481546   -1.071002
C      -1.879525   -1.169018   -2.482256
C      -0.415144   -2.451798   -0.525524
C      -1.301784   -2.000538    0.664569
C      -1.366490   -2.515037    2.066904
O      -2.495132   -2.159258   -0.209733
H       0.977947    1.858745   -0.017116
H      -0.086743    1.366592   -1.359015
H      -0.789760    2.049432    0.130488
H      -2.094011    0.075858    0.429782
H      -1.050163   -0.682669   -3.005614
H      -2.134680   -2.086228   -3.022575
H      -2.746280   -0.501129   -2.507067
H      -0.545101   -3.494045   -0.823447
H       0.623737   -2.118669   -0.536969
H      -0.438522   -2.273523    2.594412
H      -2.201212   -2.056277    2.605816
H      -1.499890   -3.600925    2.076659
