19

O      -0.032009    1.468287   -0.051119
C       0.018996    0.053372    0.008139
C       0.650104   -0.520796    1.313588
C      -0.218702   -1.731621    1.631860
C      -1.719113   -1.509814    1.898351
C      -2.162270   -0.165176    1.318701
C      -1.398409   -0.524988    0.001885
C      -1.236498   -1.977534    0.550655
O      -1.509934   -3.166090   -0.093094
H       0.867351    1.804727    0.008844
H       0.566378   -0.343365   -0.864074
H       1.699279   -0.800489    1.171977
H       0.617161    0.241267    2.100616
H       0.200071   -2.594997    2.137335
H      -2.217381   -2.079414    2.674011
H      -3.242697   -0.134034    1.160767
H      -1.847410    0.750515    1.826398
H      -1.942204   -0.382321   -0.930903
H      -0.733614   -3.426070   -0.601318
