20

C      -0.338534    1.097238    1.132674
C       0.424642   -0.074235    0.553528
C       0.595654   -0.171345   -0.976486
C       2.113764   -0.201349   -0.675897
C       2.985739    0.865399   -1.315984
O       1.864767    0.058659    0.735667
C       2.733982   -1.589138   -0.907556
N       3.077069   -2.236172    0.232960
O       2.886288   -2.031139   -2.031680
H      -0.007434    2.037878    0.682371
H      -1.411828    0.979144    0.947470
H      -0.184202    1.160504    2.214528
H       0.078105   -1.014401    1.003962
H       0.188413   -1.052654   -1.471465
H       0.279206    0.726349   -1.512820
H       2.515813    1.848473   -1.227128
H       3.963759    0.903596   -0.825181
H       3.137120    0.625357   -2.371294
H       2.936504   -1.775611    1.117070
H       3.531056   -3.131986    0.175194
