17

O      -0.386168    1.206216   -1.280541
C      -0.303679    0.310080   -0.200059
C      -1.653868   -0.280142    0.176266
O      -2.040014   -1.203332   -0.847570
C      -3.372111   -1.173313   -1.240458
C      -3.644381   -0.153709   -2.352003
O      -2.784630    0.555430   -2.828235
C      -5.020380   -0.113771   -2.806217
C      -6.173507   -0.115532   -3.151422
H      -0.966310    0.812539   -1.948820
H       0.389989   -0.523534   -0.401936
H       0.092911    0.866763    0.657722
H      -1.594977   -0.814612    1.135576
H      -2.389667    0.528989    0.268845
H      -3.638532   -2.162552   -1.638172
H      -4.070428   -0.974895   -0.411220
H      -7.187652   -0.100193   -3.471318
