22

C       0.074361    1.635922    0.080318
C       0.032405    0.109738   -0.031046
C       0.638842   -0.577836    1.192101
C       0.618442   -2.084317    1.141922
N       0.057072   -2.730934    0.207568
C       0.126932   -4.187726    0.202336
C       1.244867   -4.741795    1.090129
C       1.198389   -4.006426    2.421845
O       1.279078   -2.589865    2.226675
H       1.102958    2.002455    0.176030
H      -0.365114    2.108775   -0.803350
H      -0.482055    1.988380    0.956489
H      -0.998760   -0.233841   -0.159910
H       0.566564   -0.219240   -0.928598
H       1.681459   -0.265138    1.338328
H       0.117460   -0.266236    2.107742
H      -0.846303   -4.585374    0.523065
H       0.258328   -4.515937   -0.834906
H       1.137831   -5.819966    1.248020
H       2.219094   -4.570502    0.618203
H       0.265662   -4.234254    2.956175
H       2.036397   -4.264374    3.074257
