18

C      -0.072850   -1.205690   -0.138305
C      -0.047346   -0.011404   -0.013893
C       0.019378    1.442363    0.096594
O      -0.625023    1.855194    1.294780
C      -0.579444    3.271129    1.406996
C       0.842572    3.749242    1.694418
N       1.857906    3.112814    0.835124
C       2.327685    1.785148    1.241695
C       1.466134    1.937448    0.047235
H      -0.102165   -2.262339   -0.241500
H      -0.519870    1.883964   -0.760948
H      -0.960458    3.727204    0.478583
H      -1.256338    3.545958    2.220507
H       0.897283    4.834344    1.544062
H       1.093120    3.554731    2.743059
H       3.395022    1.610927    1.135008
H       1.868965    1.334092    2.119219
H       1.906581    1.891577   -0.946784
