23

C      -1.202806    0.745017    0.761591
C      -0.170389   -0.185434    0.158746
C      -0.753086   -1.364126   -0.597646
N       0.993448    0.503338   -0.421499
C       1.190725   -0.348601    0.765852
C       1.702884    0.300260    2.035688
C       2.665363    1.452854    1.840228
C       0.873334    0.233242    3.271578
N       2.069593   -0.617194    3.135997
H      -0.728722    1.577199    1.283886
H      -1.837345    1.159533   -0.029996
H      -1.853400    0.215188    1.465964
H      -1.366289   -1.019532   -1.438908
H       0.033699   -2.013684   -0.995407
H      -1.395675   -1.972255    0.048789
H       1.320928    0.025365   -1.257318
H       1.658701   -1.316790    0.575299
H       2.181598    2.274222    1.305843
H       3.027430    1.809155    2.807846
H       3.531708    1.136471    1.248927
H       0.951332    1.018186    4.019945
H      -0.103335   -0.237470    3.213049
H       1.779436   -1.565444    2.903292
