19

C      -0.165923    1.552962    0.079830
C      -0.029059    0.062994    0.007473
C       0.075306   -0.731938   -1.118808
C       0.135452   -0.396274   -2.570226
O      -0.493404   -1.454436   -3.296342
N       0.192492   -2.033565   -0.715461
C       0.140781   -2.104420    0.660296
C       0.016925   -0.817095    1.135220
N      -0.134831   -0.396204    2.475493
H       0.772452    2.053944    0.356949
H      -0.480759    1.978384   -0.878252
H      -0.912401    1.837487    0.830383
H      -0.364243    0.567892   -2.746312
H       1.179852   -0.282715   -2.908578
H      -0.283002   -1.339376   -4.227761
H       0.128746   -2.805060   -1.356186
H       0.180260   -3.049108    1.178259
H       0.064140   -1.142565    3.130309
H       0.469946    0.386321    2.698576
