18

C       0.004536    1.476009    0.007516
C       0.031577   -0.057884   -0.006519
N       0.838593   -0.551992   -1.134962
C       1.443084   -1.847507   -0.793324
C       1.612370   -1.765649    0.709793
N       2.196623   -0.484408    1.162954
C       0.738403   -0.681592    1.203946
C      -1.352105   -0.595565   -0.042573
N      -2.422213   -1.028924   -0.115396
H       1.032307    1.829472    0.104790
H      -0.420203    1.863113   -0.922692
H      -0.597884    1.851086    0.840059
H       0.321040   -0.566624   -2.004365
H       0.804728   -2.714822   -1.025745
H       2.392172   -1.964747   -1.328083
H       1.791752   -2.669944    1.279749
H       2.567229   -0.600704    2.103299
H       0.211376   -0.720366    2.149988
