23

C      -1.511387   -0.802333   -0.411394
C      -0.104751   -0.261266   -0.123204
C       0.950759   -0.568064   -1.207985
O       0.605353    0.041846   -2.451102
C       2.337739   -0.002755   -0.839952
C       2.399222    1.518047   -0.673946
C       1.092080   -2.086766   -1.364740
C       0.642756   -2.827515   -2.551107
O       2.026363   -2.553829   -2.334874
H      -1.941946   -0.372943   -1.324605
H      -1.519682   -1.890993   -0.520311
H      -2.194359   -0.543689    0.402943
H      -0.155882    0.824155    0.003686
H       0.250337   -0.671594    0.830048
H      -0.331971   -0.105218   -2.610318
H       2.681717   -0.499943    0.075547
H       3.017863   -0.313350   -1.639019
H       1.987806    2.015781   -1.555377
H       1.844921    1.864709    0.203949
H       3.436803    1.843309   -0.551179
H       1.140169   -2.629031   -0.417161
H       0.348379   -3.872558   -2.457639
H       0.197926   -2.285162   -3.382169
