22

C       0.635015    1.573948   -0.179332
C      -0.099285    0.238565    0.035765
C       0.224008   -0.832137   -1.044121
C       1.207441   -1.835477   -0.389444
C       1.039959   -1.554976    1.086557
C       0.333168   -0.450867    1.311352
N       0.868715   -3.219500   -0.733119
C       1.477416   -3.743766   -1.952648
C       1.949358   -4.194011   -0.615316
H       1.718022    1.420526   -0.239584
H       0.307153    2.055979   -1.106503
H       0.443253    2.269133    0.645106
H      -1.175892    0.452515    0.056235
H      -0.681025   -1.387362   -1.305859
H       0.621040   -0.390923   -1.962710
H       2.251965   -1.620236   -0.692242
H       1.483054   -2.191374    1.844764
H       0.115142   -0.037727    2.291368
H       0.844573   -4.383003   -2.561351
H       2.139530   -3.087743   -2.516383
H       2.926624   -3.838862   -0.290285
H       1.668230   -5.168703   -0.227022
