16

C       0.084379    1.554056    0.073871
C      -0.018307    0.062406    0.016080
C      -1.203574   -0.630762    0.039675
N      -2.452648    0.040475    0.147530
C      -1.092327   -2.050317    0.009990
N       0.009066   -2.745831   -0.047068
C       1.219937   -2.074464   -0.117003
O       2.309836   -2.598629   -0.203710
N       1.128566   -0.662373   -0.077742
H       0.966714    1.865532    0.641724
H       0.167058    1.987488   -0.930488
H      -0.811983    1.961761    0.545290
H      -2.732793    0.488247   -0.718925
H      -3.190718   -0.601964    0.411017
H      -2.021326   -2.626670    0.053109
H       2.021468   -0.189580   -0.112765
