21

C       0.374525    1.568302   -0.073328
C       0.159353    0.072866    0.068567
C       0.383086   -0.761329   -1.213362
C       1.100084   -2.042468   -0.729101
O       0.377927   -3.196114   -1.125473
C       2.523634   -2.125665   -1.278877
O       3.059782   -3.369705   -0.833725
C       1.112238   -1.846401    0.810088
O       1.101022   -0.446087    1.010410
H       1.382289    1.774449   -0.448100
H      -0.351253    1.995887   -0.772013
H       0.258071    2.066763    0.893044
H      -0.858784   -0.118546    0.447875
H      -0.550226   -1.032491   -1.710272
H       0.999089   -0.208808   -1.931418
H       0.993830   -3.934703   -1.032072
H       2.492643   -2.081558   -2.377009
H       3.112462   -1.274691   -0.906903
H       3.884742   -3.537589   -1.296787
H       0.210070   -2.323913    1.223683
H       1.996342   -2.262524    1.297852
