12

C      -0.016223    1.472397    0.052275
C      -0.003010   -0.013368   -0.059893
N      -0.103619   -0.615008   -1.206746
C      -0.072255   -1.969140   -1.109194
F      -0.173472   -2.572725   -2.265136
N       0.039932   -2.719182   -0.067803
C       0.146227   -2.096428    1.144519
O       0.257304   -2.580652    2.221805
O       0.118735   -0.639619    1.100296
H       0.908523    1.814281    0.527392
H      -0.118606    1.917199   -0.936125
H      -0.843732    1.785972    0.696217
