19

C       1.044514    1.935250   -1.152831
O       0.191296    0.870421   -1.507554
C       0.659244   -0.417114   -1.132880
C       0.607765   -0.672118    0.373307
C      -0.145271   -1.375151   -1.997529
N      -0.313689   -2.758006   -1.569327
C      -1.514768   -1.910864   -1.705597
C      -2.282551   -1.632192   -0.515853
N      -2.949932   -1.411165    0.401899
H       1.105659    2.082605   -0.065859
H       2.064723    1.783326   -1.539968
H       0.628769    2.840227   -1.602398
H       1.708611   -0.524481   -1.464290
H       0.807163   -1.726086    0.580405
H       1.366475   -0.074747    0.885712
H      -0.370337   -0.414022    0.783473
H       0.017027   -1.189351   -3.058455
H      -0.254265   -3.406779   -2.348910
H      -2.148790   -2.062318   -2.576211
