17

C      -0.008517    1.554363    0.016338
C       0.005645    0.048048   -0.065491
C       0.734721   -0.683509   -1.218688
C       1.089996   -1.652977   -0.075475
O       0.919614   -0.583156    0.891566
C      -0.055380   -2.638701    0.104209
O       0.044990   -3.832023    0.128450
O      -1.271198   -2.039357    0.207170
C      -1.353284   -0.599184    0.183664
H       1.004062    1.945469   -0.109404
H      -0.646843    1.978304   -0.765780
H      -0.387437    1.886970    0.988122
H       0.150516   -1.054699   -2.063125
H       1.607043   -0.126366   -1.563391
H       2.058459   -2.148426   -0.022422
H      -1.744459   -0.281139    1.155765
H      -2.075427   -0.331152   -0.595336
