20

C      -0.361978    1.422541    0.259071
C       0.008782   -0.038465    0.052962
C       1.171858   -0.336465   -0.916608
O       1.929653   -0.988856    0.120339
C       0.908999   -0.750060    1.103545
C       1.307159   -0.077103    2.438582
C       0.340724   -1.048384    3.169792
C       0.362749   -1.952951    1.907051
H       0.523265    2.036452    0.455602
H      -0.852448    1.824592   -0.634199
H      -1.052813    1.548753    1.099728
H      -0.887963   -0.624343   -0.170508
H       0.949858   -1.011867   -1.751760
H       1.689728    0.550472   -1.305670
H       2.354586   -0.303187    2.658857
H       1.148744    0.998386    2.548238
H       0.687292   -1.488153    4.106728
H      -0.642295   -0.601010    3.339958
H      -0.574145   -2.405893    1.570065
H       1.128554   -2.731027    1.976865
