18

O      -0.336919    1.327914   -0.039465
C      -0.038268   -0.067413   -0.014172
C       0.723530   -0.472582   -1.199076
C       1.390836   -0.774121   -2.152989
C       0.679423   -0.489678    1.276449
C       1.992384    0.233110    1.687605
C       1.493049    0.209022    3.158100
C       0.056400   -0.052550    2.630188
H       0.456302    1.789327   -0.331300
H      -1.018661   -0.561588   -0.033925
H       1.962176   -1.049331   -3.005047
H       0.831825   -1.573448    1.244314
H       2.938461   -0.258618    1.453008
H       2.024095    1.256183    1.299670
H       1.888890   -0.651477    3.705072
H       1.654353    1.106125    3.760096
H      -0.506060    0.876669    2.509334
H      -0.561771   -0.779728    3.162122
