19

C       0.830135    1.670071   -1.806080
O       0.928573    0.267735   -2.052809
C       0.638277   -0.526163   -1.023388
N       0.215384   -0.072696    0.090852
N       0.800143   -1.878685   -1.338490
C       1.536498   -2.505539   -2.345485
N       2.339514   -1.900542   -3.117110
C       1.238639   -4.009551   -2.392631
N       2.225597   -4.706260   -3.202824
H      -0.198111    1.950937   -1.562640
H       1.476596    1.963519   -0.975061
H       1.151688    2.147931   -2.731993
H       0.075387   -0.813447    0.773112
H       0.384507   -2.495524   -0.659869
H       2.715203   -2.593666   -3.768798
H       1.151184   -4.389478   -1.358573
H       0.252021   -4.146234   -2.852357
H       3.086712   -4.841717   -2.683873
H       1.887385   -5.622103   -3.472872
