23

C      -0.306003    1.146805   -0.649452
C       0.133987   -0.244535   -0.189497
C       0.693186   -0.255131    1.234644
O      -0.355152    0.144077    2.107350
C       0.064785    0.537358    3.394542
C       1.180350   -1.646289    1.609811
O       2.293313   -2.163481    0.874158
C       2.451975   -1.970976    2.284235
C       3.486255   -0.970732    2.732263
H       0.539507    1.844105   -0.663820
H      -0.724442    1.111821   -1.659753
H      -1.065418    1.552346    0.023520
H      -0.714255   -0.939319   -0.228968
H       0.907315   -0.646056   -0.852665
H       1.524342    0.465121    1.297257
H       0.526886   -0.286632    3.956908
H       0.783502    1.370300    3.350287
H      -0.825238    0.870622    3.934294
H       0.355960   -2.353971    1.730681
H       2.467103   -2.908337    2.845766
H       3.448252   -0.053195    2.141941
H       3.343069   -0.716563    3.788168
H       4.488776   -1.398037    2.625313
