20

C       0.123851    1.484745    0.112500
C       0.037397    0.033004    0.049058
C      -0.046780   -1.168129    0.011011
C      -0.084425   -2.609582   -0.079088
C       1.176414   -3.230400   -0.660252
N      -0.749377   -3.309894    1.054489
C      -1.382642   -3.331722   -0.275599
C      -2.725882   -2.641111   -0.326599
O      -3.686283   -3.354631    0.435159
H       1.137038    1.832635   -0.117063
H      -0.559164    1.957523   -0.601908
H      -0.134247    1.852432    1.111721
H       2.041950   -3.003591   -0.029691
H       1.075033   -4.318038   -0.735660
H       1.377835   -2.834184   -1.659972
H      -0.263705   -4.186630    1.230597
H      -1.323636   -4.262891   -0.837288
H      -2.617786   -1.606048    0.024187
H      -3.101859   -2.613044   -1.354622
H      -3.317763   -3.415314    1.324813
