21

C      -0.010226    1.603082    0.043572
C       0.091515    0.083007    0.042346
C       1.124079   -0.653011   -0.812059
C       2.414951   -0.784140    0.017006
C       2.163984   -0.135294    1.375381
C       0.715555   -0.691568    1.252536
C      -0.103602   -0.999681    2.472529
O      -0.388197    0.233305    3.126342
C       1.271363   -1.751462    0.210171
H       0.969578    2.080619    0.132068
H      -0.464125    1.959290   -0.888268
H      -0.630108    1.943396    0.878559
H      -0.896686   -0.353280   -0.152202
H       1.150351   -0.753707   -1.890413
H       3.363597   -0.978743   -0.467290
H       2.711546   -0.658175    2.165952
H       2.294929    0.943992    1.497556
H      -1.031905   -1.516251    2.176543
H       0.453936   -1.681555    3.135976
H      -0.917307    0.044722    3.906919
H       1.203525   -2.827319    0.136430
