18

C      -0.010120    1.388006    0.161473
N       0.134417   -0.054017    0.026897
C       0.551665   -0.727820    0.989550
O       0.970553   -0.311374    2.276655
C       1.444590   -1.657053    2.549365
C       0.263639   -2.551751    2.585720
O      -0.972775   -2.147833    3.060233
C       0.872191   -2.165693    1.217768
C       1.341171   -3.141485    0.180768
H       0.530086    1.877219   -0.655800
H      -1.067214    1.653050    0.048504
H       0.353557    1.787221    1.115359
H       2.414405   -1.748980    3.022288
H       0.463240   -3.589984    2.838872
H      -0.941985   -1.185452    3.141728
H       0.526892   -3.386201   -0.508629
H       2.166860   -2.730988   -0.408972
H       1.680759   -4.073105    0.643228
