18

C      -0.212345    1.361031    0.086837
C       0.068327   -0.106430    0.022969
C       0.494998   -0.990842   -1.180469
C       0.107232   -1.905030    0.006403
C       0.928544   -1.000911    0.956910
O      -1.077635   -1.045277    0.250975
C      -0.056031   -3.400725    0.032811
N      -1.327233   -3.795923    0.296987
O       0.882975   -4.146951   -0.166918
H       0.705603    1.927800   -0.097300
H      -0.952005    1.643650   -0.668190
H      -0.597765    1.635663    1.073279
H      -0.202527   -1.004897   -2.018976
H       1.542335   -0.976102   -1.487510
H       2.012783   -0.987117    0.831724
H       0.612779   -1.023986    2.000750
H      -2.051088   -3.114040    0.449937
H      -1.537552   -4.779313    0.335351
