21

C      -0.027192    1.582944    0.050375
C       1.486324    1.961722    0.008162
C       2.200450    0.610195    0.197382
C       2.163376   -0.297729   -1.053168
C       0.657868   -0.304753   -1.425126
C       0.017047    0.047958   -0.047973
C       1.178613   -0.299825    0.928300
C       1.752273   -1.701438    0.698923
O       2.488395   -1.590834   -0.533669
H      -0.481094    1.901901    0.994841
H      -0.605279    2.035942   -0.760362
H       1.769626    2.441341   -0.934587
H       1.749094    2.660079    0.807366
H       3.196546    0.666344    0.639754
H       2.857847   -0.073533   -1.864014
H       0.396067    0.427316   -2.195597
H       0.383590   -1.295549   -1.794963
H      -0.935341   -0.448325    0.149141
H       0.969485   -0.062327    1.973353
H       2.440344   -2.007646    1.496312
H       0.972506   -2.470617    0.608973
