23

C       0.879815    1.133383    0.636774
O       0.010298    0.579659   -0.322823
C       0.598695   -0.359600   -1.211242
C       0.955083   -1.666507   -0.524486
C       1.947431   -2.599674   -1.173205
C       2.311785   -1.885147    0.101166
C      -0.384636   -0.584981   -2.347344
C      -1.871880   -0.578836   -2.099697
C      -1.228215    0.538537   -2.886088
H       1.202954    0.397391    1.384386
H       1.777462    1.567314    0.168238
H       0.329439    1.930929    1.143098
H       1.528254    0.074147   -1.627099
H       0.108917   -2.133542   -0.027996
H       1.751987   -3.665292   -1.136026
H       2.427581   -2.270269   -2.089637
H       3.038676   -1.081905    0.034801
H       2.368454   -2.459030    1.019662
H      -0.020978   -1.308364   -3.070795
H      -2.483125   -1.302073   -2.628249
H      -2.207843   -0.342150   -1.097470
H      -1.144348    1.499112   -2.392251
H      -1.396654    0.585318   -3.956517
