17

C       0.023336    1.557625    0.117160
C      -0.056815    0.027133   -0.021337
C       0.648291   -0.493596   -1.237364
C       0.108053   -0.908937   -2.434567
N       1.147364   -1.270476   -3.230566
N       2.343128   -1.126703   -2.646840
C       2.053982   -0.650958   -1.426980
C       3.069959   -0.366612   -0.479754
C       3.894991   -0.112242    0.359443
H       1.064849    1.885678    0.178871
H      -0.435475    2.053881   -0.743809
H      -0.494094    1.893586    1.021363
H       0.381044   -0.433891    0.871683
H      -1.106828   -0.284942   -0.049181
H      -0.915224   -0.976791   -2.769650
H       1.109313   -1.627449   -4.170320
H       4.635598    0.106721    1.088030
