20

C      -0.183220    1.476858    0.040747
N       0.135071    0.059209   -0.001763
C       1.461239   -0.454019   -0.249121
C       2.579126    0.366152    0.421850
C       1.849286    0.174551    1.805838
C       0.771105   -0.654990    1.078996
C       2.700052   -0.610147    2.783232
C       3.616971    0.208078    3.676143
O       2.662089   -1.819345    2.838100
H       0.589071    2.121040    0.485609
H      -0.362960    1.824333   -0.981289
H      -1.107360    1.612156    0.611158
H       1.605930   -1.147658   -1.070107
H       3.536758   -0.159103    0.391211
H       2.728610    1.393869    0.078068
H       1.506508    1.102626    2.275384
H       0.298987   -1.538790    1.490068
H       3.016187    0.773965    4.398252
H       4.300059   -0.449840    4.214680
H       4.181918    0.941609    3.090703
