14

C      -0.009811    1.550980    0.000519
C      -0.020001    0.001055    0.055535
C       0.736214   -0.495113    1.210941
C       1.370608   -0.877001    2.156197
C      -1.388248   -0.521453    0.051259
C      -2.523406   -0.937922    0.029534
C      -3.801817   -1.404183    0.010456
C      -4.935874   -1.818103   -0.008338
H       1.020985    1.911350   -0.035451
H      -0.543191    1.895846   -0.888439
H      -0.496383    1.964040    0.886432
H       0.478142   -0.366216   -0.854150
H       1.925051   -1.225837    2.992125
H      -5.933273   -2.181581   -0.022470
