18

O      -0.098258    1.424506   -0.217094
C       0.045413    0.012496   -0.201117
C      -1.342723   -0.554163    0.069940
C      -2.370920   -0.145620   -1.016526
O      -3.212734   -1.273205   -1.217085
C      -2.371265   -2.398548   -1.157106
C      -1.442772   -2.119074    0.060328
C      -0.172695   -2.830384   -0.017712
N       0.828543   -3.404029   -0.091875
H       0.758177    1.814507   -0.415030
H       0.422122   -0.364934   -1.165202
H       0.750987   -0.314529    0.575957
H      -1.669281   -0.186178    1.045537
H      -2.998034    0.697552   -0.725367
H      -1.847085    0.115361   -1.949233
H      -2.984264   -3.292925   -1.031691
H      -1.766868   -2.504240   -2.071905
H      -1.950690   -2.448542    0.970960
