20

C       0.056990    1.489856    0.023779
C      -0.021509   -0.003837   -0.002511
C      -0.107238   -0.780112   -1.093055
C      -0.058523   -2.224808   -0.733736
N       1.230169   -2.613505   -0.077872
C       0.047431   -2.273679    0.748568
C       0.028174   -0.847600    1.239744
C       0.771579   -0.436040    2.490793
C      -0.730726   -0.481641    2.501903
H       1.018741    1.833052    0.425041
H      -0.051649    1.905818   -0.981110
H      -0.724658    1.928221    0.656587
H      -0.154442   -0.416974   -2.112879
H      -0.589504   -2.972964   -1.312764
H       1.304691   -3.630163   -0.105551
H      -0.418001   -3.053045    1.343862
H       1.321408   -1.208267    3.017468
H       1.253093    0.535797    2.500807
H      -1.275479    0.456015    2.520855
H      -1.219715   -1.289824    3.036817
