16

C      -1.051217    1.377819   -1.243499
C      -0.212509    0.502953   -0.285559
C      -1.112288   -0.554298    0.351215
N      -1.328863   -0.410975    1.683464
O      -1.628695   -1.456953   -0.294278
C       0.988088   -0.096402   -1.051201
N       0.692946   -1.168152   -1.827637
O       2.084484    0.426623   -0.988235
H      -0.406481    2.107619   -1.739522
H      -1.533231    0.756907   -2.001665
H      -1.828406    1.918071   -0.694523
H       0.237175    1.139435    0.480301
H      -0.876110    0.300804    2.228500
H      -1.914621   -1.085215    2.149525
H      -0.193965   -1.638440   -1.698358
H       1.451594   -1.622400   -2.309164
