22

C       0.247867    1.445587   -0.406635
C       0.032689   -0.033835   -0.092606
C      -1.464612   -0.350649   -0.035097
C       0.821626   -1.045377   -0.983565
N       1.452423   -1.696948    0.206086
C       2.789516   -1.112731    0.541144
C       2.155954   -0.209925    1.636454
O       2.396923    1.178399    1.613132
C       0.778012   -0.683987    1.120009
H       1.304884    1.703669   -0.471356
H      -0.233489    1.692318   -1.360823
H      -0.196680    2.082045    0.365957
H      -1.946307   -0.111732   -0.990276
H      -1.643379   -1.410333    0.175059
H      -1.960062    0.237397    0.746081
H       0.197332   -1.740979   -1.555046
H       1.546981   -0.590964   -1.668914
H       3.508473   -1.861575    0.889016
H       3.240718   -0.540073   -0.278113
H       2.335356   -0.612542    2.642849
H       3.250007    1.342851    2.027038
H       0.111853   -1.076221    1.895502
