19

C      -0.011473    1.506227    0.192611
C      -0.196751    0.035875    0.044259
C       0.072634   -0.760521   -1.008447
C      -0.248090   -2.214706   -0.726933
C       0.127241   -3.126813    0.544683
C       1.007886   -2.748664    1.741086
C       0.604591   -1.294126    1.962628
C      -0.420991   -0.962880    1.156688
C      -1.041832   -2.209839    0.534431
H       0.744194    1.736831    0.955348
H       0.306457    1.965612   -0.747401
H      -0.939186    1.992408    0.517658
H       0.441215   -0.417185   -1.969051
H      -0.556109   -2.830532   -1.567197
H      -0.000984   -4.183054    0.321060
H       0.842303   -3.443087    2.580163
H       2.085497   -2.776688    1.529533
H       1.322491   -0.573632    2.344161
H      -2.093724   -2.460820    0.636873
