12

N       0.032551    1.349659    0.137019
C      -0.019369   -0.008383    0.052618
C      -1.194136   -0.713955    0.029543
F      -2.358456   -0.063158    0.038744
C      -1.193515   -2.143218   -0.010522
O      -2.124126   -2.921925   -0.036368
N       0.149983   -2.606913   -0.020498
N       1.280958   -1.906884   -0.012474
N       1.215255   -0.635857    0.023710
H       0.917653    1.773723   -0.090177
H      -0.799807    1.869680   -0.084775
H       0.279046   -3.611087   -0.051013
