18

C       0.005805    1.589826   -0.061171
C       1.535338    1.599444   -0.082318
C       2.173341    0.713130    0.961160
O       1.786294    0.498332    2.289100
C       0.404024    0.271353    2.536990
C      -0.299413   -0.540554    1.443570
C       0.022844    0.028268    0.058313
C       1.543920    0.049871   -0.209694
H      -0.504212    2.170000    0.713747
H      -0.396592    1.890381   -1.032139
H       2.135294    2.325287   -0.620865
H       3.258242    0.757683    0.937111
H       0.358847   -0.252585    3.496771
H      -0.108650    1.235027    2.670717
H       0.022854   -1.588264    1.485965
H      -1.378008   -0.522351    1.640813
H      -0.561090   -0.465695   -0.719762
H       2.072419   -0.596897   -0.900599
