21

C      -0.025075    1.421444   -0.248083
O       1.244854    1.778812    0.331340
C       1.530413    0.407456    0.668991
C       0.211216   -0.085583    0.023126
C      -0.777194   -0.770205    0.942707
C      -2.119199   -1.383727    0.416989
C      -1.302005   -2.576154   -0.162221
C      -0.705866   -2.304455    1.250563
C      -2.174455   -2.182558    1.751767
H      -0.867211    1.865096    0.301080
H      -0.095252    1.718942   -1.301666
H       2.459118    0.053810    0.204334
H       1.599459    0.257119    1.755376
H       0.383509   -0.650407   -0.893679
H      -0.909562   -0.157295    1.844130
H      -2.941469   -0.851257   -0.064341
H      -1.846044   -3.517307   -0.279361
H      -0.668591   -2.390318   -1.030902
H       0.111631   -2.840211    1.736359
H      -2.337156   -1.604707    2.665895
H      -2.768059   -3.100364    1.744470
