15

C      -0.034967    1.454720   -0.042655
C       0.022621   -0.053693   -0.024801
O       1.074743   -0.670502   -0.000570
C      -1.255930   -0.796256   -0.029619
N      -2.421943   -0.176855    0.024146
O      -3.368044   -1.155728    0.044288
C      -2.768545   -2.373355   -0.004963
C      -1.412670   -2.222917   -0.055201
N      -0.397175   -3.149222   -0.180590
H       0.978163    1.854901    0.002162
H      -0.537475    1.799353   -0.952159
H      -0.630150    1.822375    0.798568
H      -3.429429   -3.223953    0.002671
H      -0.568535   -4.051427    0.236006
H       0.510542   -2.759299    0.037286
