19

C       0.051137    1.446039   -0.321685
N      -0.055679    0.116610    0.263524
C      -1.329907   -0.509828    0.088639
C      -1.884049   -1.024473   -1.288543
C      -2.456566   -2.253202   -0.535440
C      -1.447736   -1.972298    0.620225
O      -0.199101   -2.608031    0.413628
C      -1.918759   -2.170998    1.995171
N      -2.315395   -2.349955    3.066339
H       1.056056    1.839173   -0.144880
H      -0.146149    1.486913   -1.406889
H      -0.660021    2.119769    0.169962
H       0.677256   -0.496002   -0.074724
H      -2.098408    0.103393    0.572561
H      -2.593071   -0.386695   -1.818145
H      -1.072333   -1.304954   -1.963799
H      -3.490027   -2.108390   -0.213149
H      -2.357533   -3.235791   -1.001298
H      -0.302666   -3.550581    0.584654
