19

C      -0.214847    1.511624   -0.164056
C      -0.031402   -0.008618   -0.097497
C       0.853720   -0.511394   -1.258527
O       0.306279   -0.250598   -2.536805
C       0.571625   -0.520263    1.203963
N       1.360857    0.382508    2.042227
C       0.116180   -0.183933    2.594100
C      -0.964776    0.723135    2.897603
N      -1.854589    1.408509    3.172530
H       0.743550    2.026650   -0.051559
H      -0.656741    1.785624   -1.127030
H      -0.886280    1.882926    0.611556
H      -1.010989   -0.491056   -0.217380
H       1.865197   -0.084755   -1.158109
H       0.953546   -1.601358   -1.198643
H       0.394934    0.690063   -2.715129
H       0.929109   -1.548637    1.130200
H       2.163737   -0.083576    2.455299
H       0.198650   -0.985301    3.324841
