17

O       0.001572    0.022341   -0.117629
C       0.030975    1.215343   -0.136693
O       1.097573    1.926572    0.273472
C       1.038371    3.350646    0.196558
C       1.404132    4.018900    1.554363
C       2.657107    4.774959    1.061398
C       2.197764    5.415057   -0.269309
C       2.214585    3.912660   -0.630564
O       3.338116    3.743699    0.280238
H      -0.804209    1.855190   -0.485795
H       0.062800    3.657009   -0.196536
H       0.619199    4.671069    1.944626
H       1.654231    3.261789    2.298923
H       3.292054    5.277160    1.789755
H       1.257060    5.971956   -0.303155
H       3.002726    5.955229   -0.767067
H       2.376147    3.517044   -1.632522
