17

C       0.006209   -1.142234   -0.054789
C       0.039802    0.058885   -0.006254
C       0.024926    1.483494    0.081375
O       0.355272    2.242714   -1.106321
C       1.187937    2.389536    0.048174
C       0.755103    3.471147    1.060324
C      -0.731962    3.708416    0.677107
C      -0.880195    2.223701    1.105228
C       0.195398    2.547149    2.200719
H      -0.009811   -2.202756   -0.106803
H       2.216595    2.061232   -0.055231
H       1.448915    4.287813    1.255947
H      -1.225809    4.376823    1.384301
H      -0.966429    3.978116   -0.350403
H      -1.840377    1.766897    1.337891
H       0.826816    1.724989    2.549672
H      -0.206941    3.105314    3.049668
