20

C       0.090942    1.573004    0.045674
C       0.078558    0.035963    0.079383
C       0.815328   -0.468541    1.328235
C      -1.362880   -0.500253    0.015167
C      -2.151386    0.022424   -1.179198
O      -3.357425    0.025553   -1.234382
C      -1.439999   -2.049248   -0.071650
N      -2.689345   -2.540072    0.171034
O      -0.476612   -2.744483   -0.318858
H       1.119472    1.946129    0.060922
H      -0.392787    1.984069   -0.846522
H      -0.423645    1.986696    0.921157
H       0.606052   -0.346627   -0.803257
H       0.309013   -0.132097    2.241471
H       0.873484   -1.557271    1.340644
H       1.834468   -0.069680    1.353360
H      -1.925183   -0.200276    0.908458
H      -1.540799    0.366233   -2.040884
H      -3.479580   -1.917285    0.085409
H      -2.838575   -3.515795   -0.036705
