19

C      -1.435652    0.908234   -0.263104
N      -0.328439   -0.019499    0.004279
C      -0.192562   -0.425092    1.360448
C       0.996991   -1.258239    1.770664
N      -1.104776   -0.019833    2.154270
C       0.421251   -0.532182   -1.032370
O       1.314290   -1.354179   -0.896032
C       0.122491   -0.052127   -2.464334
O       0.958143   -0.715583   -3.360885
H      -1.295710    1.393834   -1.225081
H      -2.396885    0.386701   -0.248307
H      -1.458817    1.661646    0.522477
H       1.937841   -0.807252    1.450148
H       0.989706   -1.351432    2.859409
H       0.966128   -2.251416    1.320368
H      -0.910167   -0.336679    3.101750
H      -0.935414   -0.241076   -2.701465
H       0.274314    1.037874   -2.520789
H       1.516832   -1.282644   -2.801925
