18

O      -0.057529    1.350244    0.256329
C      -0.014106   -0.054890    0.044180
C      -1.455170   -0.530971   -0.121267
C      -1.571351   -2.079990   -0.164181
C      -2.074286   -2.419369    1.227751
C      -2.191867   -3.743490    1.772977
O      -1.870457   -4.767704    1.194388
C      -2.421914   -1.265514    1.850708
N      -2.254089   -0.160718    1.065497
H       0.831241    1.660077    0.451766
H       0.557324   -0.312491   -0.860302
H       0.444590   -0.576805    0.898125
H      -1.878159   -0.051655   -1.008957
H      -2.280062   -2.407249   -0.932683
H      -0.615424   -2.561636   -0.394885
H      -2.604686   -3.778841    2.808773
H      -2.830177   -1.158465    2.849127
H      -2.071344    0.744562    1.473684
