18

C      -0.120121    1.564454    0.054393
C      -0.030602    0.058485   -0.084158
C       0.623992   -0.762426   -1.156453
C       1.661463   -0.321347   -2.174775
C       2.196544    1.080758   -2.206072
C       2.896732    0.023779   -1.371231
C       2.477906   -0.044084    0.087442
O       3.107247    0.347922    1.033923
N       1.211521   -0.708492    0.189209
H       0.852563    2.057008    0.054932
H      -0.732728    1.994129   -0.744775
H      -0.597406    1.808615    1.007858
H      -0.890504   -0.439566    0.363841
H       0.136136   -1.703511   -1.402904
H       1.719098   -0.915927   -3.078135
H       2.720206    1.371736   -3.110553
H       1.664597    1.893075   -1.734400
H       3.910839   -0.257751   -1.626873
