19

C      -0.105596    1.534498    0.019817
C       0.049956    0.016936    0.014391
C       1.045290   -0.595051   -1.016819
C       2.379303   -0.094440   -0.445977
O       2.183615   -0.152218    0.981738
C       0.822064   -0.579123    1.201873
C       0.820326   -2.077616    0.853375
O       0.748303   -3.018296    1.595937
C       0.952374   -2.100026   -0.685379
H       0.833958    2.036601    0.262892
H      -0.445189    1.895783   -0.956712
H      -0.846749    1.842683    0.763814
H      -0.933164   -0.458854   -0.084660
H       0.873953   -0.335573   -2.062238
H       3.224789   -0.734357   -0.723600
H       2.613124    0.934999   -0.742428
H       0.529104   -0.327005    2.219486
H       0.058441   -2.565274   -1.115046
H       1.818032   -2.689174   -1.001838
