13

N       0.344949    1.240118    0.003441
C       0.058495    0.005755    0.001482
N      -1.234495   -0.492390    0.011336
C      -2.425504    0.194839    0.025507
N      -2.683347    1.461645    0.031043
C      -4.076669    1.508484    0.045991
C      -4.579730    0.257099    0.047155
O      -3.514002   -0.619210    0.034825
H       1.355873    1.359525   -0.005387
H       0.776692   -0.823287   -0.008220
H      -1.337263   -1.493811    0.009733
H      -4.603667    2.449335    0.053971
H      -5.559890   -0.184864    0.055662
