21

C      -0.003100    1.393627    0.019476
O       0.006697   -0.013546    0.036271
C      -1.289274   -0.571700    0.012490
C      -1.149649   -2.097090    0.022320
C      -0.442333   -2.580363    1.293491
C      -2.541234   -2.752563   -0.151385
N      -3.187500   -2.314840   -1.393556
C      -2.444450   -4.227182   -0.067032
N      -2.398649   -5.382799   -0.057679
H       1.037024    1.728284    0.027878
H      -0.497315    1.787916   -0.882446
H      -0.517633    1.809640    0.900305
H      -1.866220   -0.244163    0.897411
H      -1.840303   -0.241739   -0.878274
H      -0.540206   -2.375163   -0.848174
H      -0.257319   -3.657195    1.268223
H       0.512424   -2.062795    1.399644
H      -1.045665   -2.360724    2.182800
H      -3.177890   -2.426400    0.681510
H      -2.665876   -2.668253   -2.191588
H      -4.118808   -2.714300   -1.460893
