16

C      -0.154738    1.576197    0.042947
C       0.000844    0.044832    0.012704
C       0.713182   -0.470815   -1.202134
C       2.049080   -0.735804   -1.366933
N       3.121111   -0.696270   -0.503195
O       2.303906   -1.178712   -2.604171
N       1.092686   -1.227703   -3.330804
C       0.191223   -0.803894   -2.480845
H       0.820438    2.074254    0.022247
H      -0.719144    1.928576   -0.825884
H      -0.681971    1.900735    0.945932
H       0.532550   -0.285126    0.914349
H      -0.991679   -0.416933    0.072318
H       3.059772    0.014661    0.210277
H       4.018012   -0.696225   -0.968601
H      -0.839806   -0.752620   -2.807250
