19

N      -0.210373   -1.174949   -0.126611
C      -0.124591   -0.026720   -0.028354
C       0.009993    1.422161    0.090791
C       1.470164    1.892613   -0.061155
N       1.532682    3.336219    0.056658
C       1.481910    3.969095    1.411431
C       2.770150    4.732946    1.097651
C       3.872816    3.751626    0.790436
C       2.799013    4.007276   -0.236305
H      -0.609544    1.911225   -0.667720
H      -0.381519    1.729585    1.067518
H       2.097603    1.358273    0.672896
H       1.836205    1.617027   -1.055753
H       0.593194    4.595664    1.534080
H       1.543429    3.266484    2.254905
H       2.948154    5.778756    1.306005
H       4.835727    4.197654    0.561974
H       3.932688    2.805052    1.321107
H       3.008856    4.372965   -1.235749
