21

C      -0.045059    1.544928    0.050912
C       0.038190    0.027554    0.057056
C      -1.244008   -0.642389   -0.412705
C       1.322078   -0.707159   -0.330965
C       2.641134    0.034341   -0.307817
O       2.717940    0.696490    0.960729
C       1.885899    0.031004    1.899094
C       0.824577   -0.719676    1.104037
O       0.221308   -1.808945    1.729489
H       0.879736    2.017674    0.383691
H      -0.266793    1.906152   -0.960106
H      -0.859289    1.883877    0.701924
H      -1.478539   -0.334003   -1.437805
H      -1.169301   -1.730707   -0.383755
H      -2.087553   -0.353868    0.224045
H       1.231989   -1.588688   -0.956554
H       3.474576   -0.676033   -0.428684
H       2.744771    0.810143   -1.074928
H       2.455076   -0.703020    2.497186
H       1.487874    0.786312    2.585567
H       0.897965   -2.475537    1.895103
