17

O      -0.011705    1.422306    0.181670
C       0.070546    0.012395    0.024010
C       0.593711   -0.652914    1.303313
C      -0.232817   -1.661124    1.640517
C      -1.353669   -1.360112    2.640429
C      -2.135788   -1.080500    1.306287
C      -1.227983   -1.982744    0.511939
C      -1.335041   -0.598548   -0.000836
O      -2.142155   -0.329325   -1.095691
H       0.829974    1.808476   -0.079266
H       0.575508   -0.233062   -0.923243
H       1.079760   -0.020353    2.041493
H      -1.810393   -2.217151    3.149798
H      -1.176217   -0.545948    3.348552
H      -3.219354   -1.040232    1.225820
H      -1.416284   -2.917434    0.000858
H      -2.283253    0.624539   -1.109484
