14

N      -0.048439   -1.128750   -0.160083
C      -0.024411    0.025266   -0.082156
C      -0.013413    1.454251    0.077113
C      -1.363903    2.266330    0.242583
C      -0.431117    3.340743   -0.267553
N       0.132034    4.143603    0.541306
C       1.518578    3.625326    0.672895
C       1.352590    2.214950    0.091830
N       0.439912    2.366507   -1.026620
H      -2.091291    1.844931   -0.454634
H      -1.783457    2.440279    1.231183
H       2.281721    4.173034    0.102468
H       1.785906    3.669755    1.732094
H       2.217658    1.574487   -0.065323
