19

C       0.020087    1.537403   -0.127319
C       0.002873    0.019171   -0.011679
C       1.314494   -0.748531   -0.136148
C       0.620997   -0.687266    1.196683
C       1.215603    0.068811    2.371762
C       2.168772   -0.812784    3.155870
O       3.304847   -0.524124    3.426596
C      -1.174046   -0.600569   -0.565188
C      -2.166213   -1.100573   -1.027129
H       0.954534    1.959849    0.248873
H      -0.083398    1.834039   -1.175163
H      -0.809224    1.983247    0.430558
H       1.310575   -1.682278   -0.685340
H       2.209781   -0.148573   -0.266734
H       0.093153   -1.592307    1.484674
H       1.760541    0.964159    2.066059
H       0.411819    0.375738    3.057583
H       1.732327   -1.787768    3.477148
H      -3.038663   -1.545904   -1.436636
