19

C      -0.030868    1.551848    0.090302
C       0.056256    0.048825   -0.034594
C       0.678853   -0.669584   -1.200016
C       1.627998    0.075181   -2.138876
C       2.932740    0.161852   -1.317390
O       2.533488    0.121926    0.058049
C       1.392787   -0.671323    0.156160
C       1.471502   -1.901249    0.971433
O       2.455930   -2.310016    1.532503
H       0.918847    2.031288   -0.153512
H      -0.806452    1.954619   -0.569803
H      -0.285134    1.832629    1.116932
H      -0.790249   -0.484921    0.393743
H       0.197740   -1.572883   -1.557673
H       1.771497   -0.474681   -3.072048
H       1.250282    1.069674   -2.394967
H       3.590661   -0.690520   -1.537791
H       3.494658    1.086480   -1.471838
H       0.496819   -2.443928    1.024693
