24

C       0.724494   -0.208713   -1.211262
C      -0.110040   -0.058228    0.068638
C      -1.486705   -0.719326   -0.093794
C       0.672912   -0.611483    1.272690
C       0.017008   -0.432243    2.653755
C       0.866674   -1.059921    3.764886
N      -0.239646    0.976582    2.953749
C      -1.480647    1.514836    3.070811
O      -2.528361    0.920472    2.912951
H       0.912908   -1.265786   -1.435298
H       0.204892    0.223166   -2.072749
H       1.696280    0.289218   -1.121309
H      -0.270100    1.014798    0.240152
H      -1.389227   -1.808201   -0.189871
H      -2.144640   -0.503211    0.751807
H      -1.982531   -0.353622   -0.999154
H       0.848168   -1.685765    1.122927
H       1.668962   -0.145099    1.297803
H      -0.969747   -0.900627    2.655551
H       1.854277   -0.586205    3.824224
H       0.377641   -0.952418    4.736949
H       1.023356   -2.125747    3.573800
H       0.551311    1.582040    3.114473
H      -1.437108    2.590421    3.335562
