17

C      -0.345712    1.367965   -0.006456
N       1.065863    0.933129    0.037860
C      -0.000969   -0.066035    0.035938
C      -0.172828   -1.122523    1.142107
C      -0.490279   -2.180258    0.047659
C      -1.945395   -2.188312   -0.458030
O      -1.670904   -1.164655   -1.446712
C      -0.284783   -1.102075   -1.057394
H      -0.693998    1.867220    0.893926
H      -0.751115    1.764796   -0.933752
H       1.480054    1.003407   -0.889812
H       0.762318   -1.315398    1.673888
H      -0.965480   -0.942353    1.874301
H       0.038627   -3.130717    0.084128
H      -2.264024   -3.121373   -0.938422
H      -2.710929   -1.877464    0.264346
H       0.396623   -1.163416   -1.912858
