14

O      -0.038162    1.286747    0.037627
N       0.003888   -0.088220    0.035323
C      -1.145611   -0.643511    0.032780
C      -1.251105   -2.157049    0.044871
O      -0.625607   -2.689186    1.204665
C      -2.753817   -2.370213    0.037817
C      -3.447626   -1.227917    0.007206
C      -2.535846   -0.052953   -0.006161
O      -2.850091    1.113095   -0.051974
H       0.897267    1.522253    0.051542
H      -0.794545   -2.578109   -0.863929
H      -0.541657   -3.641224    1.088065
H      -3.176989   -3.368830    0.070522
H      -4.524135   -1.112897   -0.002048
