15

O       0.142351    1.442114   -0.141765
C      -0.010013    0.072318   -0.040881
C       0.409650   -0.721203   -1.306251
C      -0.911160   -1.547342   -1.261112
C      -1.357516   -0.774696    0.007364
N      -0.858831   -1.332689    1.266054
C       0.343600   -0.651856    1.281984
O       1.271840   -0.645374    2.046343
H       0.151048    1.822854    0.743312
H       0.451965   -0.045309   -2.163021
H       1.355190   -1.262886   -1.238823
H      -1.556569   -1.371544   -2.124410
H      -0.802292   -2.625044   -1.120501
H      -2.356454   -0.341549    0.056964
H      -1.085317   -2.209948    1.714960
