14

O       0.107277    1.382298    0.086818
C       0.030630    0.019434    0.025856
C       0.460712   -0.807411    1.241860
C      -0.844203   -1.470316    1.440790
C      -1.302084   -0.929729    0.058871
C      -0.346158   -1.971300   -0.612681
N       0.243648   -2.234687    0.760009
C       0.424414   -0.788725   -1.212084
O       0.820599   -0.464764   -2.295747
H       0.147274    1.714499   -0.819916
H       1.285655   -0.623849    1.918303
H      -1.357938   -1.825950    2.324843
H      -2.272879   -0.611159   -0.306636
H      -0.628880   -2.859552   -1.168924
