17

C      -0.109846   -1.219389    0.085133
C      -0.041791   -0.019466    0.055147
C       0.024307    1.413914   -0.011346
O       0.612631    2.106313    1.137890
C       1.298173    2.134882   -0.080765
C       2.757414    1.756178   -0.356987
C       2.507595    2.314755   -1.793191
C       1.829441    3.354692   -0.846628
C       3.095709    3.225516    0.063225
H      -0.168564   -2.279284    0.120269
H      -0.870418    1.904984   -0.392293
H       3.276426    0.841658   -0.075789
H       3.396609    2.670914   -2.317895
H       1.854547    1.732899   -2.447936
H       1.293836    4.262097   -1.122848
H       2.972763    3.476810    1.118161
H       4.020107    3.636046   -0.350589
