19

C       0.005906    1.568538   -0.019268
C       0.082333    0.058666   -0.037692
C       0.688118   -0.740211   -1.147491
C       0.035254   -1.802146   -1.967868
O       1.783389   -0.029098   -1.735946
C       2.529800   -0.079995   -0.495011
C       1.363937   -0.742433    0.240456
C       1.469973   -1.743735    1.239256
C       1.569404   -2.593531    2.087246
H       0.792468    2.010111   -0.635090
H      -0.955225    1.903568   -0.423429
H       0.095268    1.959841    0.999252
H      -0.770736   -0.448459    0.408298
H      -0.493769   -1.356136   -2.817920
H       0.776865   -2.505241   -2.358054
H      -0.691692   -2.354212   -1.366016
H       3.396536   -0.741157   -0.592929
H       2.850355    0.911149   -0.154991
H       1.655254   -3.341473    2.835633
