15

C      -0.024721    1.490262    0.101374
C      -0.008370   -0.000917    0.031233
C      -0.024945   -0.790681   -1.062286
N      -0.000426   -2.149284   -0.725533
C       0.034772   -2.327715    0.649901
O       0.061755   -3.384583    1.233616
C       0.030094   -0.898945    1.182499
N       0.053940   -0.475729    2.396419
O       0.088563   -1.482648    3.333589
H       0.863090    1.874198    0.616252
H      -0.056369    1.929205   -0.899705
H      -0.893394    1.852611    0.662420
H      -0.053484   -0.497496   -2.102088
H      -0.006102   -2.919483   -1.371613
H       0.102444   -0.992917    4.164640
