23

C      -0.287183    1.430080    0.189267
C       0.054148   -0.046294   -0.049635
C      -1.234322   -0.904722   -0.139862
C      -1.512263   -1.354568    1.301472
C      -0.113407   -1.715860    1.828696
C       0.836306   -0.673980    1.170197
C       2.081155   -1.248262    0.548657
C       2.155763   -1.026455   -0.762344
C       0.994975   -0.217948   -1.281513
H       0.619919    2.017628    0.369676
H      -0.797813    1.861834   -0.679236
H      -0.942116    1.558616    1.058239
H      -2.068179   -0.360258   -0.595229
H      -1.046694   -1.788999   -0.761510
H      -1.935551   -0.526507    1.883140
H      -2.221559   -2.185443    1.363453
H      -0.051586   -1.713424    2.920731
H       0.156370   -2.723807    1.492154
H       1.090311    0.099745    1.906758
H       2.816617   -1.795377    1.130407
H       2.960207   -1.366178   -1.406948
H       0.487558   -0.710964   -2.121480
H       1.334189    0.753321   -1.667519
