14

N      -0.136661    1.371406    0.023019
C       0.017697   -0.001345   -0.163973
O       1.097137   -0.500358   -0.419315
C      -1.222715   -0.781592   -0.076982
C      -1.381945   -2.144825    0.085681
C      -2.770018   -2.414239    0.127089
C      -3.427457   -1.209748   -0.023715
N      -2.487043   -0.224491   -0.125831
H       0.747254    1.858117    0.084744
H      -0.813133    1.668297    0.711522
H      -0.569094   -2.846883    0.181701
H      -3.240055   -3.377034    0.254448
H      -4.480244   -0.980335   -0.071672
H      -2.673686    0.728230   -0.388959
