19

C      -0.893518    1.017184    0.106842
C       0.100732   -0.123369   -0.036637
C       1.004781   -0.225348   -1.323048
O       1.217209    1.026283   -1.914910
C       2.233194   -0.640264   -0.421422
C       2.504358   -2.136321   -0.365519
O       3.416372    0.080203   -0.705829
C       1.416053   -0.043341    0.739515
O       1.787168    0.555430    1.712095
H      -0.434895    1.955191   -0.211774
H      -1.782009    0.843803   -0.507261
H      -1.210275    1.118992    1.148714
H      -0.372917   -1.096401    0.143087
H       0.689301   -0.971755   -2.061470
H       2.177588    1.159983   -1.907524
H       2.963487   -2.457181   -1.305556
H       3.190727   -2.370543    0.453199
H       1.582309   -2.707241   -0.220414
H       3.600628    0.633292    0.065598
