18

O       0.047268   -0.043907   -0.694796
C       0.036749    1.051472   -0.190011
C       1.270283    1.834968    0.082329
C       1.217924    3.327726   -0.106416
N       1.382183    2.775635    1.215130
C       0.294690    2.917318    2.169198
C       0.266721    1.868370    3.299717
O       0.393161    2.890004    4.308907
C       0.582855    3.915136    3.313202
H      -0.919281    1.546728    0.089532
H       2.187380    1.301677   -0.152150
H       2.078593    3.828850   -0.540069
H       0.251737    3.760460   -0.368141
H      -0.683301    3.084312    1.700681
H      -0.656738    1.289089    3.411196
H       1.128056    1.189088    3.284499
H       1.609278    4.301407    3.300785
H      -0.125082    4.742722    3.434988
