27

C      -0.136044    1.556225    0.114942
C      -0.013991    0.022112    0.055835
C       0.632376   -0.494601    1.354734
C      -1.425556   -0.582033   -0.068659
C       0.802146   -0.421927   -1.184456
C       2.254599    0.063405   -1.281559
C       2.950711   -0.443072   -2.549720
C       4.394093    0.027391   -2.666206
O       4.933440   -0.499233   -3.870040
H       0.834790    2.040511    0.258761
H      -0.576274    1.953642   -0.806712
H      -0.779304    1.861253    0.947826
H       0.010244   -0.246150    2.221765
H       0.749346   -1.584088    1.331912
H       1.619888   -0.054861    1.525573
H      -1.926468   -0.233931   -0.978860
H      -1.386071   -1.676354   -0.106881
H      -2.051258   -0.300168    0.785389
H       0.799164   -1.520328   -1.220746
H       0.264173   -0.091976   -2.084194
H       2.286021    1.160296   -1.268517
H       2.821820   -0.269943   -0.403227
H       2.940787   -1.539882   -2.574198
H       2.404311   -0.108536   -3.440350
H       4.427390    1.129709   -2.664003
H       4.968837   -0.314957   -1.789451
H       5.844914   -0.202793   -3.945736
