16

O      -0.003060   -0.031822    0.035419
C       0.000460    1.174755   -0.000671
C      -1.226360    2.116768    0.058187
N      -0.652575    3.451424   -0.104861
C       0.713468    3.371943   -0.049786
N       1.650494    4.229306    0.014607
C       2.904947    3.448664    0.019011
C       2.522372    1.921511   -0.061887
N       1.071126    2.020903   -0.090455
H      -1.933120    1.863393   -0.738572
H      -1.734715    1.978264    1.020739
H      -1.110719    4.272258    0.254634
H       3.531901    3.742152   -0.829621
H       3.476461    3.664777    0.928203
H       2.901335    1.433682   -0.964128
H       2.856379    1.345635    0.805513
