17

C      -0.124135    1.418934    0.038648
N       0.001761   -0.027170   -0.036567
C      -0.012904   -0.802166    1.186799
C      -1.422869   -0.934029    1.813710
C      -1.394996   -1.707557    3.046964
C      -1.327256   -2.352630    4.058710
C       0.153119   -0.629754   -1.253478
O       0.169974   -0.063518   -2.325238
H       0.650521    1.837855    0.691680
H      -0.005255    1.812976   -0.970677
H      -1.103963    1.721863    0.425111
H       0.372633   -1.802598    0.969982
H       0.665108   -0.347092    1.918602
H      -1.834193    0.062921    2.011961
H      -2.091753   -1.406473    1.084038
H      -1.286796   -2.920719    4.954952
H       0.267151   -1.727155   -1.151723
