21

C      -0.015703   -1.157057   -0.051744
C       0.039241    0.037736    0.054291
C       0.071161    1.488271    0.191955
O       1.367905    1.974328   -0.084877
C       1.456590    3.380513    0.042723
C       2.886463    3.804343   -0.270880
C       3.080525    5.301675   -0.169763
C       3.372616    5.947738    1.163649
C       4.445133    5.878572    0.104416
H      -0.056940   -2.213833   -0.147430
H      -0.667123    1.940873   -0.493103
H      -0.238259    1.769496    1.213831
H       0.749255    3.872280   -0.648197
H       1.178297    3.693180    1.063491
H       3.563088    3.291247    0.422884
H       3.142431    3.451013   -1.277136
H       2.454372    5.881467   -0.844355
H       2.926434    6.910984    1.384932
H       3.474911    5.298258    2.027315
H       5.265105    5.184720    0.258723
H       4.729437    6.794306   -0.401948
