17

O      -0.168642    1.413921   -0.146511
C      -0.025200   -0.001493   -0.011893
C       0.738202   -0.370146    1.261651
C       0.012761    0.072375    2.531544
O       0.618148    0.411181    3.527275
C      -1.463277    0.021804    2.482503
C      -2.125296   -0.262003    1.355549
C      -1.461285   -0.547336    0.027608
O      -2.222913   -0.035220   -1.048071
H       0.688825    1.793661   -0.358772
H       0.480134   -0.412411   -0.896556
H       0.853995   -1.462445    1.306491
H       1.745516    0.056927    1.269729
H      -1.975840    0.242921    3.413535
H      -3.211971   -0.292032    1.335243
H      -1.421697   -1.635944   -0.118526
H      -1.992679    0.902416   -1.100114
