19

C       0.476872    1.344669   -0.042893
N       0.428706   -0.108772   -0.001188
C       0.510243   -0.729773   -1.092595
N       0.576378   -0.367302   -2.456304
C       0.721179   -1.745045   -2.930643
C       2.132368   -2.382248   -2.847627
C       3.367583   -1.552756   -3.121497
O       1.947482   -2.689517   -1.438858
C       0.584823   -2.210619   -1.451795
H       1.513514    1.699929    0.037149
H       0.041266    1.774247   -0.958291
H      -0.068452    1.749890    0.814265
H       1.055842    0.436997   -2.836761
H       0.069850   -2.025131   -3.758228
H       2.162947   -3.319353   -3.421888
H       3.321965   -0.592445   -2.600258
H       4.257918   -2.083569   -2.771489
H       3.479955   -1.371525   -4.196158
H      -0.134181   -2.919754   -1.042275
