15

C      -0.058336    1.401561    0.087428
O       0.005709   -0.012551   -0.004763
C       0.618685   -0.556629   -1.079056
C       1.204520    0.162366   -2.122797
C       1.798033   -0.555584   -3.160255
N       1.849840   -1.884857   -3.233307
C       1.281216   -2.554122   -2.220607
C       0.662303   -1.953936   -1.136718
H       0.942895    1.847558    0.127256
H      -0.612034    1.834608   -0.754500
H      -0.586934    1.619090    1.016416
H       1.209380    1.243922   -2.146271
H       2.259507   -0.011791   -3.982110
H       1.324127   -3.639163   -2.281345
H       0.215726   -2.537606   -0.340600
