17

C      -0.108761    1.554995   -0.092267
C       0.016948    0.056586    0.042042
N       1.330587   -0.544546   -0.221087
C       0.760329   -0.639543    1.133677
C       1.515377    0.091227    2.190999
O       0.888707    0.221718    3.468583
C       2.062778   -0.587195    3.390171
C       1.883935   -2.009233    3.592103
N       1.761003   -3.147604    3.750785
H       0.801302    2.065694    0.230075
H      -0.287132    1.827327   -1.137624
H      -0.947997    1.928676    0.503329
H      -0.851475   -0.495153   -0.316817
H       1.247125   -1.433997   -0.704335
H       0.357181   -1.595667    1.459687
H       2.057648    0.974332    1.857597
H       2.946194   -0.175286    3.874502
