19

C       0.030204    1.472283    0.320398
C       0.016758    0.030131    0.118845
C       0.012849   -1.161637   -0.051093
C      -0.014652   -2.611372   -0.254084
C      -1.397909   -3.198078   -0.151743
C      -2.057268   -3.922323   -1.050077
C      -3.401601   -4.315888   -0.509405
O      -3.462245   -3.744708    0.795558
C      -2.256222   -3.042933    1.077923
H       1.049532    1.870906    0.270798
H      -0.564065    1.987184   -0.442492
H      -0.382517    1.741711    1.298844
H       0.413844   -2.861304   -1.231867
H       0.636665   -3.088508    0.493993
H      -1.707016   -4.203587   -2.035692
H      -4.231392   -3.931822   -1.124501
H      -3.528305   -5.408929   -0.446188
H      -1.773513   -3.466868    1.974476
H      -2.473772   -1.986896    1.297718
