15

O       0.206078    1.400171   -0.024665
C       0.011276    0.017388   -0.027771
C       0.305888   -0.747784    1.279597
N      -0.648990   -0.171329    2.256914
C      -1.091201   -1.265535    1.342656
C      -1.439704   -0.548746    0.055092
C      -2.699012   -0.024320   -0.457642
O      -2.060182   -1.176093   -1.046833
H      -0.161192    1.711251    0.814003
H       0.528205   -0.398457   -0.896558
H       1.234954   -1.200981    1.600731
H      -0.453186   -0.589336    3.165329
H      -1.472707   -2.205758    1.718425
H      -3.629238   -0.227811    0.070213
H      -2.689940    0.873345   -1.073228
