18

C       0.123705    1.568555    0.007745
C       0.091717    0.038078    0.061648
O       0.910342   -0.355875    1.146001
C      -1.348402   -0.493393    0.203735
C      -1.377852   -2.013574    0.310111
N      -2.426356   -2.636492   -0.283342
O      -0.530488   -2.635357    0.942356
C       0.724463   -0.497939   -1.228901
O       0.121593   -1.024888   -2.129924
H       1.152891    1.916510   -0.120723
H      -0.485318    1.953932   -0.815129
H      -0.250769    1.970057    0.953598
H       0.691202   -1.292964    1.310898
H      -1.774226   -0.087076    1.127950
H      -1.960150   -0.147234   -0.632809
H      -2.980850   -2.163190   -0.975738
H      -2.416533   -3.644760   -0.297141
H       1.828843   -0.365955   -1.252070
