18

C      -0.507530    1.362766    0.128354
C      -0.048642   -0.076342    0.063873
C       1.364200   -0.411327   -0.343505
C       0.917686   -0.658043    1.075190
N       1.448782    0.157457    2.130051
C       2.745692    0.543109    2.340720
N       2.861096    1.220474    3.452648
N       1.602294    1.286720    4.021296
C       0.786606    0.648587    3.223634
H       0.284883    2.023508    0.489770
H      -0.806694    1.711518   -0.865233
H      -1.368623    1.478400    0.795028
H      -0.811199   -0.778383   -0.261992
H       1.555158   -1.274651   -0.970051
H       2.034665    0.424420   -0.512732
H       0.759338   -1.690602    1.371435
H       3.544207    0.302442    1.656923
H      -0.272647    0.511099    3.375490
