19

C      -0.476772    1.320419   -0.215124
O      -0.321704   -0.080055   -0.191048
C       0.623674   -0.542500   -1.127304
C       0.727739   -2.049582   -0.994468
C       0.917191   -2.568115    0.414137
O      -0.155302   -2.813580   -1.813472
C       1.239455   -2.867011   -2.129371
C       1.646984   -2.278373   -3.441556
O       2.692858   -2.538012   -3.980711
H       0.467776    1.838336    0.014256
H      -0.833855    1.673580   -1.194851
H      -1.216954    1.578299    0.545416
H       0.322924   -0.269709   -2.149303
H       1.612280   -0.089071   -0.935673
H       0.076284   -2.255186    1.036564
H       0.976691   -3.658475    0.415133
H       1.833820   -2.162384    0.854263
H       1.753200   -3.796158   -1.883427
H       0.899256   -1.592793   -3.895122
