18

C      -0.045525    1.537026    0.020902
C      -0.003998    0.046285   -0.050210
C      -0.035061   -0.812224   -1.126794
C       0.014740   -2.151604   -0.635788
C       0.051913   -3.416719   -1.447882
C       1.482796   -3.899284   -1.624647
O       1.876107   -5.004483   -1.354383
C       0.084965   -2.066024    0.738022
N       0.069345   -0.736428    1.077995
H       0.847392    1.954370    0.503097
H      -0.100595    1.954709   -0.986795
H      -0.917772    1.901891    0.577763
H      -0.097973   -0.513173   -2.163134
H      -0.525951   -4.226419   -0.993425
H      -0.361152   -3.226682   -2.447615
H       2.173916   -3.118879   -2.018612
H       0.138250   -2.836508    1.490756
H       0.094560   -0.383836    2.019252
