21

C      -0.042009    1.479211    0.023935
C       0.021899   -0.037462   -0.006856
C      -1.290910   -0.811648    0.332878
C      -0.561760   -1.551438    1.496305
C       0.757548   -0.803601    1.152219
C       1.827560   -1.503707    0.288547
C       1.065609   -2.089806   -0.920143
C       0.903922   -0.575460   -1.163624
O       2.243763   -0.396511   -0.584750
H       0.960203    1.905512   -0.081038
H      -0.668280    1.864836   -0.790207
H      -0.468107    1.840866    0.966152
H      -2.099052   -0.156932    0.668842
H      -1.685180   -1.447137   -0.465044
H      -0.956529   -1.304168    2.484233
H      -0.518251   -2.641115    1.417180
H       1.204129   -0.208896    1.950980
H       2.656099   -2.017862    0.776291
H       1.754793   -2.531515   -1.640004
H       0.192227   -2.726709   -0.772380
H       0.788886   -0.137145   -2.156275
