17

C      -0.360887    1.823527    0.426033
C      -0.118198    0.394705   -0.002265
C      -1.303872   -0.250686   -0.700325
O      -0.927687   -1.539063   -1.161680
N       1.222590    0.096516   -0.507474
C       0.788735   -0.501840    0.787991
C       1.456667   -0.075253    1.985865
C       1.994457    0.258692    3.008573
H       0.511980    2.215925    0.949382
H      -0.553607    2.458064   -0.446126
H      -1.224839    1.891686    1.096664
H      -2.152266   -0.305695   -0.000530
H      -1.609304    0.393398   -1.540971
H      -1.666970   -1.923341   -1.639992
H       1.147780   -0.634382   -1.213669
H       0.531620   -1.557136    0.759535
H       2.480292    0.555016    3.904824
