17

O       0.053057    1.250869   -0.184177
C      -0.046846   -0.134888   -0.062135
C      -0.494956   -0.692386    1.282823
O      -0.820908    0.252280    2.271370
C      -1.420839   -0.752663    0.112760
C      -2.695139    0.081076   -0.036148
O      -3.590362   -0.807721   -0.703674
C      -2.783443   -1.784449   -1.309240
O      -1.710544   -2.022164   -0.418722
H      -0.183472    1.616496    0.680041
H       0.701984   -0.676944   -0.632193
H      -0.074765   -1.632488    1.634178
H      -0.045274    0.377582    2.829557
H      -3.140722    0.366671    0.919587
H      -2.501041    0.982876   -0.631005
H      -3.356811   -2.706542   -1.432167
H      -2.399783   -1.432334   -2.284099
