18

C      -0.607724    0.999967    0.002113
N       0.552731    0.131166   -0.167460
C       0.991230   -0.537646    1.048010
C       0.052673   -1.664106    1.557246
O      -0.244653   -2.574284    0.511908
C       0.471948   -3.725752    0.446810
N       0.293786   -4.507309   -0.523169
C       2.346365   -1.083455    0.848923
N       3.393636   -1.552836    0.716446
H      -0.357752    1.807495    0.699210
H      -0.844606    1.456632   -0.962045
H      -1.518070    0.500242    0.370607
H       0.371834   -0.570786   -0.878120
H       1.059366    0.214879    1.845416
H       0.496455   -2.174465    2.421048
H      -0.898962   -1.224893    1.866850
H       1.155349   -3.862194    1.293961
H       0.886229   -5.328773   -0.423879
