17

O      -0.036570    1.380941    0.018911
C      -0.001840   -0.012847    0.045020
C      -0.369149   -0.781544   -1.193200
C      -1.304234   -0.784392    0.019702
C      -1.121143   -1.910473    0.967174
C       0.103112   -1.902445    1.529342
C       0.909694   -0.691796    1.069411
C       0.625752   -2.851991    2.436859
C       1.114558   -3.633744    3.213860
H       0.697942    1.688480   -0.523412
H      -0.695202   -0.183402   -2.037881
H       0.156905   -1.698044   -1.441175
H      -2.259060   -0.281071   -0.075666
H      -1.879045   -2.659948    1.159918
H       1.881477   -0.982935    0.654546
H       1.105082   -0.008812    1.905204
H       1.529116   -4.329720    3.899994
