15

O      -0.156354   -0.006544   -0.466578
C      -0.065656    1.140871   -0.104086
C       1.242900    1.777631    0.214843
C       1.444273    3.243160   -0.043792
C       1.404393    2.776295    1.387403
C       0.250612    3.157175    2.234168
O      -0.867494    3.418021    1.841505
C       0.516283    3.252076    3.745327
O       1.587253    3.044682    4.250318
H      -0.952046    1.797086   -0.008218
H       2.088603    1.112716    0.076414
H       2.396766    3.566315   -0.446000
H       0.577030    3.804778   -0.376667
H       2.337999    2.684984    1.928168
H      -0.390079    3.539532    4.317048
