21

C       0.091538    1.416511    0.035688
O      -0.165680    0.039945   -0.115939
C       0.574200   -0.568736   -1.150762
C       2.072949   -0.867941   -0.816497
C       2.108018   -2.400837   -0.991373
C       1.406379   -3.089093    0.200409
C      -0.089168   -2.781667   -0.112260
C       0.045177   -1.996626   -1.433643
O       1.174890   -2.604864   -2.068542
H       1.136297    1.615852    0.317742
H      -0.125992    1.973319   -0.889319
H      -0.561977    1.783735    0.830870
H       0.497814    0.039787   -2.063154
H       2.751187   -0.378947   -1.519476
H       2.327930   -0.543939    0.196172
H       3.076656   -2.817689   -1.267646
H       1.604184   -4.163543    0.193260
H       1.733515   -2.690924    1.164164
H      -0.660876   -3.697878   -0.274237
H      -0.581475   -2.194812    0.663180
H      -0.818520   -2.035395   -2.096827
