14

C       0.217968    1.507895    0.073608
O       1.208950    0.485699   -0.051837
C      -0.166057    0.084005    0.010349
C      -0.544667   -0.676874    1.215725
C      -1.682177   -1.377325    1.569903
C      -1.413449   -1.852349    2.871589
N      -0.205802   -1.489327    3.296152
N       0.296403   -0.769617    2.276530
H       0.190989    2.019400    1.033853
H       0.086503    2.139070   -0.803771
H      -0.576081   -0.287421   -0.927626
H      -2.572873   -1.515119    0.978481
H      -2.049470   -2.445529    3.512117
H       1.244056   -0.430385    2.306038
