23

C      -0.283198    1.473209    0.355021
C       0.246401    0.078952   -0.006937
C       0.822533   -0.630167    1.200460
C      -0.009295   -1.485212    2.094384
C       1.068438   -2.150995    1.244384
C       0.694677   -3.073847    0.096128
C       0.200219   -4.448305    0.567701
C       2.312960   -2.517710    1.975331
O       2.700536   -1.993907    2.994237
H       0.512875    2.103492    0.765308
H      -0.691129    1.979534   -0.525096
H      -1.075833    1.409169    1.107475
H      -0.566680   -0.510901   -0.443884
H       1.015456    0.170965   -0.784556
H       1.605811   -0.075284    1.711819
H       0.173829   -1.450627    3.162607
H      -1.037063   -1.678727    1.800889
H      -0.075874   -2.608360   -0.524642
H       1.567946   -3.203513   -0.557625
H       0.959933   -4.966272    1.162986
H      -0.694212   -4.349909    1.191206
H      -0.048400   -5.090003   -0.283155
H       2.908993   -3.327711    1.494915
