14

O       0.057642    1.397378   -0.089369
C       0.050282   -0.019564   -0.047959
C       0.698888   -0.572237    1.217763
C      -0.144286   -1.304823    1.946259
C      -1.486181   -1.367401    1.286248
N      -2.115341   -0.013945    1.163149
C      -1.368313   -0.601722    0.026574
H      -0.570874    1.666051    0.596137
H       0.572208   -0.347199   -0.954254
H       1.711103   -0.299605    1.493304
H       0.068092   -1.761746    2.905537
H      -2.135170   -2.229785    1.390301
H      -3.112674   -0.124263    0.987676
H      -1.904600   -0.863760   -0.877938
