16

C      -0.110560    1.386407   -0.011305
N      -0.091327   -0.069702    0.034661
C       0.626761   -0.640299    1.077524
C       1.290526   -0.108865    2.166686
N       1.783542   -1.108135    2.965165
C       1.441371   -2.241851    2.385309
N       0.727537   -1.999717    1.223820
C       1.731181   -3.553158    2.816859
C       1.956856   -4.686414    3.158155
H       0.890025    1.837580   -0.093686
H      -0.711721    1.705656   -0.865299
H      -0.581695    1.768263    0.899152
H       0.129232   -0.476925   -0.865805
H       1.436373    0.931071    2.411149
H       0.293773   -2.697297    0.642260
H       2.166632   -5.678129    3.473849
