17

C      -0.274613    1.437405   -0.127541
C       0.076346   -0.054055    0.026752
C       0.935253   -0.331295    1.284786
C       0.217332   -0.138146    2.599271
O      -0.973826    0.006854    2.711423
C      -1.218029   -0.906883    0.070066
O      -2.279165   -0.537017   -0.344632
C       0.809963   -0.545298   -1.143215
C       1.396683   -0.977419   -2.099800
H       0.634270    2.030045   -0.259725
H      -0.917993    1.577330   -0.996843
H      -0.813778    1.788057    0.754701
H       1.303208   -1.368165    1.278781
H       1.839559    0.289005    1.273816
H       0.876931   -0.166400    3.495047
H      -1.064250   -1.935006    0.465435
H       1.912971   -1.344092   -2.952670
