16

C       0.001198    1.468322    0.022251
N       0.011628    0.010712   -0.004890
N      -0.020311   -0.581611   -1.190832
C      -0.010588   -1.887350   -1.209755
C       0.032803   -2.715645   -0.017196
O       0.042560   -3.942138   -0.014689
C       0.064287   -1.904826    1.208654
C       0.110642   -2.597685    2.531506
N       0.053190   -0.598345    1.183458
H       0.904028    1.837359    0.515099
H      -0.034419    1.815141   -1.008354
H      -0.873933    1.823484    0.571942
H      -0.037138   -2.355895   -2.188455
H       0.992200   -3.245434    2.583689
H       0.130168   -1.874723    3.347797
H      -0.755689   -3.259227    2.637715
