25

C       0.022504    1.537599    0.085916
C       0.021280    0.019235    0.027880
O       0.694187   -0.477120    1.164992
C       0.751142   -1.885710    1.211469
C       1.495149   -2.306134    2.471825
C       1.609626   -3.827172    2.613402
C       2.357553   -4.253363    3.880044
C       2.472140   -5.765146    4.022322
O       3.178470   -6.041905    5.222598
H       1.047182    1.919932    0.099019
H      -0.493146    1.954177   -0.784583
H      -0.483801    1.887143    0.990230
H      -1.012992   -0.365645   -0.001602
H       0.517804   -0.332807   -0.893126
H      -0.268217   -2.311516    1.207677
H       1.262657   -2.279081    0.314797
H       2.493859   -1.853313    2.456025
H       0.976086   -1.885139    3.341341
H       0.603935   -4.270433    2.615743
H       2.119937   -4.238667    1.731272
H       3.367938   -3.826504    3.883249
H       1.850374   -3.858173    4.768688
H       1.464961   -6.214018    4.040107
H       2.996450   -6.182053    3.146246
H       3.251865   -6.996069    5.315305
