20

C      -0.050820    1.618752    0.073051
C       0.004648    0.090655   -0.023201
C       0.745268   -0.527318    1.167013
C       0.773055   -2.090421    1.206185
C       1.492253   -2.689641   -0.032248
C       1.463014   -2.521497    2.428865
C       2.060978   -2.849899    3.416856
C      -0.614739   -2.599033    1.241253
N      -1.704887   -2.982110    1.242417
H       0.954470    2.053796    0.095685
H      -0.579743    2.046566   -0.783539
H      -0.571760    1.939608    0.981437
H      -1.013910   -0.312164   -0.068414
H       0.494765   -0.193386   -0.961357
H       1.789393   -0.194672    1.181188
H       0.292960   -0.180274    2.101941
H       2.507717   -2.289197   -0.085323
H       1.548673   -3.776525    0.050653
H       0.957610   -2.436955   -0.949689
H       2.576896   -3.149171    4.295939
