15

C      -0.054742    1.586238   -0.048504
C       1.486803    1.325925    0.015209
O       1.175073    0.174808    0.882351
C      -0.009516    0.023158   -0.005755
C       0.679391   -0.291074   -1.330302
C       1.707057    0.608512   -1.311854
N       2.415772    0.381538   -2.454802
C       1.761822   -0.650052   -3.103812
N       0.699892   -1.080728   -2.439930
H      -0.434790    2.019203    0.879989
H      -0.470341    2.074947   -0.932416
H       2.209327    2.026653    0.428444
H      -0.803075   -0.597969    0.401753
H       3.248651    0.844512   -2.778301
H       2.115244   -1.035049   -4.048262
