17

O      -0.072332    1.376320   -0.154416
C      -0.029600   -0.019066   -0.080830
C      -0.464295   -0.707288    1.208260
C      -1.341429   -0.707203   -0.012689
C      -2.747346   -0.165728   -0.108562
C      -3.249169   -0.707934   -1.464154
O      -2.173269   -1.403745   -2.095403
C      -1.859610   -1.933554   -0.774232
C      -3.312318   -1.581554   -0.262592
H       0.678803    1.723123    0.338542
H       0.766767   -0.492126   -0.656976
H       0.038591   -1.624758    1.500759
H      -0.753195   -0.062640    2.032473
H      -3.184891    0.688685    0.389193
H      -4.008082   -0.240446   -2.077169
H      -1.347232   -2.893424   -0.792388
H      -4.094364   -2.127032    0.246194
