21

C      -0.054994    1.522426    0.020567
C       0.020567    0.021448   -0.004407
C      -0.080351   -0.801484   -1.296789
C      -0.578112   -2.005509   -0.438870
O       0.488600   -2.877105   -0.094321
C       1.426015   -2.085064    0.637793
C       0.665944   -0.834022    1.091386
C       1.088232   -0.201378    2.396491
C      -0.786195   -1.039434    0.749419
H       0.844161    1.967421   -0.423294
H      -0.914861    1.874568   -0.561113
H      -0.154517    1.923434    1.032739
H      -0.873893   -0.409574   -1.941281
H       0.820769   -0.969771   -1.897099
H      -1.405604   -2.602302   -0.819579
H       1.779913   -2.669302    1.496252
H       2.297171   -1.842884    0.011754
H       2.088057    0.242588    2.323068
H       0.401121    0.586538    2.714758
H       1.118114   -0.952379    3.193996
H      -1.613862   -0.963854    1.443426
