18

O       0.461367    1.033498    0.618904
C       0.007167    0.150177   -0.386891
C      -1.378489   -0.404722   -0.094143
C      -1.591262   -1.890629    0.015928
C      -1.400067   -2.615884   -1.336196
C      -1.700188   -4.094394   -1.215535
O      -0.942326   -4.977628   -1.519671
N      -2.412317    0.326132    0.080583
O      -2.108334    1.699233   -0.070896
H      -0.192073    1.742602    0.660802
H      -0.010002    0.632026   -1.377730
H       0.731427   -0.667843   -0.432901
H      -0.882141   -2.299080    0.747258
H      -2.602009   -2.070989    0.393936
H      -2.104169   -2.190417   -2.064686
H      -0.386013   -2.499655   -1.728475
H      -2.712365   -4.321833   -0.805319
H      -2.951378    2.120361    0.125856
