19

C       0.900487    1.472836    0.001615
C       0.070543    0.191165    0.005790
C       0.565620   -0.908165   -0.980624
C       1.240288   -1.670182    0.213396
O       0.910765   -3.042700    0.365649
C       2.678077   -1.463230    0.316135
C       3.873797   -1.348911    0.383422
C       0.377138   -0.781877    1.173644
O       0.959674   -0.193206    2.301014
H       1.970453    1.260936    0.074222
H       0.724829    2.031779   -0.923732
H       0.632222    2.113105    0.846485
H      -0.989529    0.439943   -0.088204
H      -0.242720   -1.518015   -1.389759
H       1.227212   -0.582723   -1.785559
H       1.534196   -3.559751   -0.156227
H       4.927443   -1.231838    0.449587
H      -0.508193   -1.380582    1.431147
H       1.219509   -0.892038    2.910441
