24

C       1.391364    1.255324   -0.254430
C       0.907331   -0.165853   -0.066449
N       1.822396   -1.293745    0.139983
C       3.269955   -1.104392    0.200882
C       3.907409   -2.476845    0.438499
O       3.474814   -3.409752   -0.526593
C       0.921738   -0.903591    1.240229
C       1.455966   -0.255166    2.504028
C      -0.178603   -1.914885    1.508870
H       2.196445    1.533949    0.427691
H       1.757697    1.401761   -1.276572
H       0.563674    1.955894   -0.100233
H       0.090605   -0.416602   -0.745653
H       3.598811   -0.724831   -0.773590
H       3.613167   -0.397713    0.969470
H       4.998393   -2.402013    0.367636
H       3.665926   -2.814445    1.461903
H       2.530404   -3.221373   -0.630283
H       2.189525    0.531106    2.322358
H       0.629105    0.192499    3.065723
H       1.922056   -1.005683    3.153203
H       0.175327   -2.706585    2.179513
H      -1.043428   -1.436806    1.983002
H      -0.507402   -2.383782    0.578349
