19

C       0.049980    1.443733    0.057542
C       1.379737    0.721150   -0.063511
C       1.725932    0.094330    1.294749
C       0.410656   -0.736908    1.240845
O       0.723238   -2.103990    1.011427
C      -0.237298   -2.724688    0.170066
C      -0.285192   -2.035055   -1.188647
O      -0.686101   -0.670872   -1.050117
C       0.038455   -0.035169   -0.064623
H      -0.235483    1.943271    0.982348
H      -0.271127    1.952623   -0.846378
H       2.073541    0.943292   -0.864405
H       2.587752   -0.574108    1.275503
H       1.819528    0.793161    2.132296
H      -0.299202   -0.648562    2.078105
H       0.070507   -3.768901    0.059358
H      -1.237884   -2.701715    0.632146
H       0.707516   -2.088446   -1.659618
H      -1.019968   -2.508412   -1.845881
