21

C      -0.507018    0.975938   -0.114513
O      -0.149583   -0.384023    0.061416
C       0.733728   -0.611831    1.142416
O       0.148489   -0.388983    2.388345
C      -0.590349   -1.562909    2.781846
C      -0.086594   -2.747339    1.924380
C      -1.177950   -3.355367    1.039674
C       1.082989   -2.108468    1.107220
O       1.281999   -2.611425   -0.189086
H       0.377911    1.593189   -0.327828
H      -1.188907    1.023425   -0.966035
H      -1.006543    1.372038    0.776814
H       1.594640    0.065517    1.064320
H      -0.416515   -1.700999    3.852789
H      -1.662782   -1.388581    2.629745
H       0.316988   -3.531086    2.571569
H      -1.642946   -2.589940    0.410875
H      -0.760613   -4.125906    0.386918
H      -1.960950   -3.811399    1.654063
H       2.022191   -2.249192    1.650981
H       0.670400   -2.125121   -0.757260
