21

C      -0.437171    1.474798    0.178049
C      -0.039714    0.017078   -0.029429
C      -1.215388   -0.788669   -0.582174
C       1.269138   -0.249953   -0.808012
O       1.782714   -1.104217    0.231941
C       0.725927   -0.711759    1.154889
C       1.298413    0.179020    2.260583
C       0.061541   -1.868570    1.746960
C      -0.483097   -2.805121    2.268699
H       0.392142    2.091789    0.532020
H      -0.787607    1.904329   -0.767221
H      -1.257567    1.561603    0.898970
H      -1.548530   -0.357644   -1.532921
H      -0.939077   -1.831537   -0.756093
H      -2.062767   -0.779265    0.110471
H       1.166606   -0.781971   -1.760743
H       1.902851    0.634967   -0.959703
H       1.862837    1.010089    1.831852
H       0.503309    0.576555    2.898242
H       1.976278   -0.411745    2.881968
H      -0.961441   -3.640590    2.717477
