25

C      -0.090980    1.552894   -0.318327
C       0.037847    0.059430    0.003188
C      -1.318607   -0.615835    0.099298
O      -2.042824   -0.593802   -1.153148
C      -2.495919   -1.952788   -0.960512
C      -2.450595   -2.769855   -2.235486
C      -1.477202   -2.165178    0.204204
C      -0.231047   -2.968885   -0.168969
C      -2.073239   -2.676220    1.513272
H       0.892185    2.023282   -0.414199
H      -0.631764    1.695148   -1.258123
H      -0.640860    2.081834    0.468019
H       0.639064   -0.431762   -0.768868
H       0.564638   -0.077653    0.956953
H      -1.911409   -0.112828    0.882400
H      -3.527357   -1.951490   -0.571661
H      -1.445813   -2.801881   -2.663448
H      -2.788049   -3.795433   -2.049793
H      -3.120244   -2.325423   -2.979005
H       0.219405   -2.632886   -1.105839
H       0.530540   -2.887524    0.614112
H      -0.476210   -4.030899   -0.279291
H      -2.353769   -3.733029    1.433944
H      -1.352824   -2.589856    2.335024
H      -2.968848   -2.111772    1.792533
