16

O      -0.257445    1.348407   -1.696198
C      -0.111777    1.606044   -0.518052
C      -1.303497    1.612013    0.439885
C      -1.475577    2.927799    1.160628
C      -0.585938    3.425641    2.013493
C       0.714258    2.745913    2.383114
C       1.592308    2.295015    1.242567
C       1.244296    1.853774    0.026447
H      -2.187150    1.355446   -0.146029
H      -1.142002    0.806525    1.171914
H      -2.380183    3.487761    0.942707
H      -0.785993    4.375645    2.500715
H       1.303874    3.412083    3.020263
H       0.500001    1.869737    3.020572
H       2.659253    2.352011    1.453216
H       2.026555    1.616979   -0.690230
