16

O      -0.198914    0.130838   -1.024511
C      -0.126910    1.209956   -0.471127
N      -1.072075    2.207925   -0.467313
C      -0.666886    3.367923    0.293146
C       0.698878    2.964664    0.785371
C       1.006722    1.740715    0.352627
C       2.231343    0.899384    0.563777
C       3.257483    1.530520    1.383219
C       4.091938    2.067437    2.060947
H      -1.948872    2.115572   -0.950535
H      -0.621900    4.276442   -0.325099
H      -1.351448    3.578857    1.127739
H       1.313002    3.607052    1.401958
H       1.925964   -0.058463    1.006665
H       2.642310    0.626631   -0.417859
H       4.842618    2.523302    2.657654
