13

O      -0.233324    0.347888   -0.863777
C       0.035195    1.106386    0.033169
C       1.282194    1.891818    0.129300
O       2.139632    2.034709   -1.000037
C       2.690471    1.409786    0.132199
C       3.064460    2.484069    1.213629
N       2.735839    3.813438    0.648719
C       1.667424    2.965753    1.215822
H      -0.651541    1.261656    0.896195
H       3.069438    0.399008    0.037049
H       3.761957    2.348770    2.028378
H       2.976478    4.499937    1.364536
H       1.037077    3.279594    2.036982
