17

C       0.105549    1.441915    0.348652
C       1.265023    2.239148   -0.182862
C       2.179425    1.841662   -1.061784
C       2.192467    0.464063   -1.688960
O       2.303773   -0.561092   -0.702738
C       1.000356   -1.006519   -0.431959
C      -0.087149    0.015148   -0.142879
C       0.141261   -0.504344   -1.552842
O       0.991487    0.205985   -2.414914
H       0.181048    1.422958    1.446604
H      -0.817059    2.006386    0.144383
H       1.331901    3.248853    0.218238
H       2.972269    2.518399   -1.366275
H       3.033319    0.357774   -2.381045
H       0.986562   -2.003798   -0.009967
H      -0.957131   -0.457134    0.312323
H      -0.608239   -1.071577   -2.090737
