22

C      -0.030861    1.534781   -0.198440
N      -0.121085    0.077973   -0.243365
C      -0.308483   -0.600084    1.035304
C      -1.426570   -0.496387    0.057827
C       1.397261    1.992240   -0.050324
C       2.593228    1.688968   -1.004557
C       3.175865    2.586776    0.123035
C       1.901548    3.467726   -0.014950
C       2.379175    1.715674    1.134033
H      -0.439274    1.923851   -1.140174
H      -0.642185    1.963881    0.618922
H       0.231838   -1.533850    1.162259
H      -0.376790    0.012181    1.933547
H      -2.239494    0.185092    0.305406
H      -1.718098   -1.352350   -0.544305
H       2.934719    0.651743   -1.039653
H       2.540898    2.128539   -2.005188
H       4.204927    2.932922    0.223937
H       1.797530    4.042100   -0.940641
H       1.616717    4.062773    0.858274
H       2.131287    2.179463    2.094062
H       2.713386    0.682637    1.261540
