17

C      -0.197160    1.538104    0.082237
C      -0.067035    0.050249    0.012690
C       0.066402   -0.718892   -1.073140
C       0.197951   -2.191408   -0.763132
C       0.255374   -2.224126    0.766407
O       1.630358   -2.152520    1.288376
C       1.421404   -0.906555    1.827763
O       2.180953   -0.249313    2.462424
C      -0.007454   -0.788219    1.271907
H       0.618857    1.971335    0.673001
H      -0.179782    1.988301   -0.913426
H      -1.132278    1.831767    0.575535
H       0.088321   -0.337599   -2.088555
H      -0.651420   -2.772165   -1.145058
H       1.103916   -2.641834   -1.186601
H      -0.270024   -3.052003    1.242141
H      -0.786153   -0.588503    2.010957
