17

C       0.048046    1.544689   -0.080153
C       0.027958    0.090823   -0.017343
C       0.006406   -1.113194    0.030271
C       0.025383   -2.559018    0.058724
C       0.017116   -3.348835    1.400151
C      -1.457278   -2.909243    1.504986
N      -1.349208   -3.304082    0.016650
C      -0.540927   -4.503176    0.547317
H       1.075193    1.925667   -0.095924
H      -0.453698    1.908262   -0.983688
H      -0.457982    1.989513    0.783589
H       0.701387   -2.949961   -0.708981
H       0.794249   -3.365480    2.171994
H      -2.141480   -3.549263    2.067888
H      -1.672633   -1.851356    1.661072
H       0.110679   -4.959863   -0.203270
H      -1.163154   -5.250887    1.044410
