18

C      -0.041130    1.482192   -0.048927
C      -0.005589   -0.003223    0.105653
C      -1.007352   -0.859629    0.290823
C      -2.400972   -1.221228   -0.160550
O      -1.866385   -2.488259   -0.655996
C      -0.625036   -2.289674    0.112371
C       0.754868   -2.214543   -0.559206
C       1.280430   -0.824497   -0.067972
H       0.523457    1.980363    0.750006
H       0.421679    1.792000   -0.994615
H      -1.064330    1.866931   -0.022045
H      -3.142659   -1.393294    0.631089
H      -2.847377   -0.609410   -0.952377
H      -0.643235   -2.945152    0.994136
H       1.423958   -3.044547   -0.315348
H       0.615446   -2.189940   -1.644637
H       1.954562   -0.355200   -0.793572
H       1.851035   -0.917721    0.866310
