17

O       0.615361    1.144557    1.323549
C       0.639154    1.840649    0.345674
C       1.246902    1.390292   -0.981632
N       1.429525    2.499530   -1.896472
C       2.381851    3.428975   -1.600916
N       2.985695    3.547762   -0.483160
C       3.833349    4.736927   -0.608908
C       3.674871    5.178382   -2.091084
O       2.645284    4.303712   -2.607859
H       0.180530    2.852607    0.317203
H       2.178805    0.853472   -0.764535
H       0.545346    0.682674   -1.436997
H       1.268416    2.343935   -2.878050
H       3.505277    5.517731    0.088059
H       4.873420    4.500222   -0.361113
H       3.337773    6.210403   -2.214000
H       4.580874    5.026693   -2.685694
