17

C       0.008013    1.521724   -0.037030
C       0.015757    0.012005    0.029657
C      -0.371905   -0.716378   -1.302883
O      -1.369755   -1.719481   -0.907102
C      -0.841376   -1.928197    0.330291
N       0.016103   -2.820223    0.604435
C       0.998883   -2.120075    1.459712
C       0.626391   -0.640653    1.284210
N      -0.825808   -0.655374    1.044204
H       0.821422    1.883454   -0.675933
H      -0.938798    1.883806   -0.451502
H       0.133996    1.962926    0.954546
H      -0.861646   -0.020077   -1.986345
H       0.459794   -1.222381   -1.800481
H       0.930750   -2.389317    2.522755
H       2.001377   -2.389989    1.112594
H       0.984916    0.061846    2.033432
