17

O      -0.033655    1.388354    0.101175
C      -0.010739   -0.003453    0.014917
C      -1.409864   -0.616010   -0.198809
C      -1.136696   -2.052618   -0.699347
C      -0.601511   -1.243964   -1.908099
N      -1.623834   -0.165354   -1.628927
C       0.666423   -0.583676   -1.310245
C       1.257400    0.434269   -2.164645
N       1.730610    1.225621   -2.861357
H      -0.552054    1.698944   -0.655493
H       0.491285   -0.372583    0.911152
H      -2.166544   -0.359605    0.541684
H      -0.453516   -2.701357   -0.140346
H      -2.058077   -2.588792   -0.938303
H      -0.531811   -1.637228   -2.921216
H      -2.533557   -0.502363   -1.942183
H       1.429422   -1.331638   -1.078252
