23

C      -0.007709    1.266039    0.461875
O      -0.083235   -0.135282    0.371304
C      -1.337361   -0.589960   -0.090248
C      -1.291296   -2.111511   -0.164220
C      -2.632516   -2.768211   -0.536329
C      -3.120724   -2.404319   -1.947362
C      -2.512516   -4.273152   -0.408477
C      -2.892220   -4.996763    0.810044
O      -3.733640   -5.013014   -0.346437
H       0.992251    1.518405    0.823404
H      -0.164071    1.749825   -0.515850
H      -0.752213    1.672668    1.165345
H      -2.140003   -0.264004    0.595686
H      -1.559873   -0.148900   -1.075879
H      -0.518176   -2.404199   -0.886189
H      -0.960973   -2.481792    0.813492
H      -3.395309   -2.446595    0.185997
H      -4.039698   -2.949567   -2.180332
H      -3.330063   -1.335367   -2.043481
H      -2.369724   -2.667343   -2.701914
H      -1.755939   -4.730232   -1.051719
H      -2.415062   -5.944575    1.055495
H      -3.282852   -4.441286    1.662225
