19

C      -0.235363    1.465954   -0.016358
N       0.074837    0.051521   -0.021647
C       0.773339   -0.444725   -1.225717
C       1.734026   -1.488461   -0.662446
C       1.243708   -1.905000    0.743262
C       2.686897   -1.597065    1.251424
C       2.338920   -0.158575    1.185155
C       0.819617   -0.458113    1.110302
N       2.945715   -0.848579   -0.011678
H       0.657341    2.115040   -0.089570
H      -0.890727    1.706436   -0.860141
H      -0.769924    1.724761    0.903904
H       0.060055   -0.855052   -1.952149
H       1.353544    0.344187   -1.731330
H       2.054381   -2.271223   -1.350017
H       0.602968   -2.759067    0.945912
H       3.440676   -2.147848    1.795805
H       2.871515    0.702580    1.567324
H       0.294289   -0.326865    2.058339
