22

C      -0.113787    1.558392   -0.048889
C       0.047697    0.064683    0.115782
N       1.304300   -0.670546   -0.171575
C       2.411200    0.142149    0.376004
C       3.136279   -0.655650    1.413035
C       1.878047    0.101369    1.803522
C       1.841734    1.102485    2.926553
C       0.690823   -0.659006    1.246371
C       0.091208   -1.882245    1.881647
H       0.706892    2.124496    0.393332
H      -0.169518    1.816019   -1.112617
H      -1.046409    1.890435    0.420117
H      -0.788231   -0.490841   -0.309768
H       2.859254    0.948661   -0.193826
H       3.141332   -1.740376    1.341579
H       4.061615   -0.220764    1.781033
H       2.781213    1.661888    2.984047
H       1.027843    1.824902    2.804703
H       1.700416    0.605615    3.894313
H      -0.541729   -1.604477    2.733154
H      -0.528290   -2.432819    1.168126
H       0.869743   -2.559102    2.249027
