16

O      -0.145520   -0.049639   -0.537003
C       0.132288    0.829811    0.235541
C       1.264654    1.845910   -0.004332
N       1.343547    2.848795    1.049045
C       2.698406    2.833424    1.641923
C       3.387132    1.682646    0.960460
C       2.603369    1.123310    0.044928
C       1.050809    2.463974   -1.393705
O       1.028626    3.652275   -1.580194
H      -0.394373    0.989625    1.200653
H       1.133197    3.756016    0.646331
H       3.233178    3.780404    1.480244
H       2.651682    2.684969    2.730507
H       4.390104    1.361782    1.214295
H       2.813323    0.266616   -0.581082
H       0.906238    1.729477   -2.209200
