17

C       0.079449   -1.140315   -0.025138
C       0.024153    0.060252    0.007498
C      -0.084050    1.485691    0.027305
C      -0.638937    2.434301    1.133250
C       0.014566    3.291761    0.022890
O       1.149042    2.332526   -0.003679
C      -0.690116    2.433716   -1.032147
C      -0.665238    2.401658   -2.511572
C      -1.990983    2.476152   -1.751873
H       0.136751   -2.200779   -0.048386
H      -1.722652    2.483131    1.258375
H      -0.087322    2.398913    2.072926
H       0.255301    4.353426    0.014512
H      -0.333596    3.286560   -3.044818
H      -0.415923    1.464768   -2.999082
H      -2.616096    1.588763   -1.740520
H      -2.541706    3.411117   -1.778622
