13

O       0.034514    0.017884   -0.081619
C       0.007252    1.205780    0.038456
C      -1.098606    2.280052    0.007855
N      -0.043824    3.346316   -0.170228
C       0.789514    3.317484    1.046337
C       0.284557    3.003655    2.355208
C      -0.126476    2.785251    3.463720
C       1.049593    2.291714   -0.021947
H      -1.705750    2.199159   -0.897191
H      -1.736246    2.407178    0.884075
H       1.510008    4.132768    1.036407
H      -0.485012    2.579626    4.442408
H       1.970788    2.291923   -0.594421
