17

O      -0.189269    0.040904    0.359417
C      -0.124404    1.209315    0.152396
N      -1.140828    2.236725    0.110406
C      -0.251622    3.047657   -0.771787
C       0.777435    4.261145   -0.778613
C       1.068272    4.583360    0.680538
C       1.230251    3.119694    1.176754
C       0.919241    2.365211   -0.148051
N       1.861599    3.192642   -1.071471
H      -2.096753    1.988453   -0.120878
H      -0.381366    2.744072   -1.817085
H       0.690291    5.067098   -1.508438
H       1.976677    5.178094    0.791271
H       0.238844    5.110385    1.157970
H       2.252386    2.887204    1.481648
H       0.548756    2.861209    1.986449
H       1.723574    2.875976   -2.033175
