16

C      -0.580236    1.414953    0.142825
O      -0.378788    0.000623    0.292375
C       0.838046   -0.361878    0.732534
O       1.724746    0.400392    1.012016
C       0.953435   -1.874912    0.786330
C       2.054729   -2.480207   -0.122280
C       2.693293   -2.868398    1.194630
N       3.730783   -3.479999    1.527821
O       1.687986   -2.306881    1.965379
H       0.142374    1.832069   -0.562694
H      -1.596267    1.531120   -0.232926
H      -0.465229    1.919236    1.105086
H      -0.027086   -2.349605    0.735583
H       1.743516   -3.313122   -0.752997
H       2.628299   -1.758026   -0.704179
H       3.822452   -3.543968    2.542765
