21

C       0.038161    1.553377    0.007966
C      -0.024305    0.020781    0.037317
O       0.687346   -0.494643    1.166313
C      -1.434138   -0.503781   -0.000571
C      -1.986098   -1.262511   -0.953432
C      -3.429181   -1.614143   -0.661701
C      -3.657792   -1.037265    0.735398
C      -2.807196   -1.542631    1.869890
C      -2.397946   -0.281631    1.127838
H       1.080407    1.880641    0.055250
H      -0.416995    1.948097   -0.905965
H      -0.492352    1.986144    0.863794
H       0.517049   -0.368873   -0.831732
H       0.164796   -0.298592    1.951767
H      -1.463907   -1.622448   -1.833655
H      -4.109133   -1.162072   -1.396878
H      -3.608464   -2.696467   -0.703765
H      -4.634324   -0.637725    0.981627
H      -3.211038   -1.430425    2.871068
H      -2.198865   -2.429074    1.720418
H      -2.436460    0.671179    1.646015
