16

O      -0.354506    0.341158   -0.592192
C      -0.082867    1.389982   -0.110996
O      -0.946741    2.300943    0.471101
C       0.145857    3.212947    0.815442
C       1.158293    2.268400    0.135416
N       1.346052    3.236560   -0.985677
C       0.475447    4.210664   -0.284130
C      -0.427549    5.197145   -0.946619
C       0.752820    5.674478   -0.120746
H       0.103333    3.510351    1.861268
H       2.043100    1.817746    0.580922
H       2.309045    3.551178   -1.043841
H      -0.350676    5.277844   -2.025204
H      -1.428473    5.324814   -0.549353
H       0.564065    6.129828    0.846420
H       1.606494    6.086298   -0.650105
