15

O       0.160433    0.072374    0.420711
C       0.100690    1.259029    0.306302
O      -0.997270    1.981467    0.649326
C      -0.828716    3.382158    0.369813
C       0.664457    3.615505    0.100684
O       1.391544    4.019968    1.254873
C       2.171891    2.917812    1.688874
O       2.395963    2.107277    0.558247
C       1.210524    2.209332   -0.201046
H      -1.439550    3.638482   -0.502543
H      -1.175642    3.950807    1.234507
H       0.825566    4.354791   -0.687454
H       3.134251    3.275747    2.063403
H       1.638209    2.356743    2.474222
H       1.443176    1.997659   -1.245695
