20

C       0.034952    1.514237    0.043705
C      -0.054524   -0.007744   -0.009211
C      -1.517983   -0.467386    0.066854
C       0.652446   -0.565270   -1.258682
C       0.947343   -2.041451   -1.147418
N       0.895732   -2.813214   -2.148509
O       1.382936   -2.465652    0.079226
C       0.809600   -1.839104    1.233750
O       0.704468   -0.462492    1.134232
H       1.080812    1.829273    0.087854
H      -0.427966    1.956128   -0.843439
H      -0.477433    1.897256    0.930857
H      -2.101553    0.033845   -0.710740
H      -1.630717   -1.543677   -0.090912
H      -1.945863   -0.208532    1.039622
H       0.074312   -0.393227   -2.168124
H       1.613617   -0.048151   -1.365824
H       1.174709   -3.757845   -1.872881
H      -0.165311   -2.313609    1.421044
H       1.490661   -2.054795    2.059149
