14

N      -0.185862    1.360002   -0.171448
C      -0.076231   -0.038095   -0.061671
C      -1.249841   -0.798091   -0.118417
O      -2.488647   -0.243149   -0.257081
C      -1.120913   -2.172424   -0.045434
O      -2.180898   -3.006380   -0.095755
C       0.183971   -2.673273    0.055868
N       1.264657   -1.903792    0.062988
N       1.137301   -0.578223    0.013168
H       0.742296    1.769577   -0.198144
H      -0.711013    1.771810    0.593709
H      -2.370988    0.630457   -0.657146
H      -2.976808   -2.472011   -0.218544
H       0.346980   -3.744699    0.113451
