18

O       0.132538    1.472951   -0.135366
C       0.072183    0.070985   -0.014971
C       0.250544   -0.540246    1.456857
C      -1.286208   -0.669529    1.473229
C      -2.631440   -1.461386    1.458128
C      -2.796937   -0.227022    0.456859
C      -2.141974    0.640110    1.549052
C      -1.361789   -0.591548   -0.055741
H       1.042436    1.745495    0.023339
H       0.737092   -0.403162   -0.750136
H       0.783665   -1.494837    1.417005
H       0.712275    0.105237    2.211090
H      -2.605086   -2.456606    1.005735
H      -3.266333   -1.439754    2.350128
H      -3.695938    0.000693   -0.123677
H      -2.711932    0.775917    2.473208
H      -1.665847    1.561924    1.224247
H      -1.298509   -1.545829   -0.587503
