16

C      -0.012356    1.507226   -0.183441
C       0.036296    0.020512    0.049522
O       1.314014   -0.632911   -0.042283
C       0.658645   -0.621797    1.222757
C       1.329291    0.115659    2.357762
C       0.130444   -1.992427    1.626450
F       1.115584   -2.764141    2.109122
F      -0.792856   -1.867354    2.597221
F      -0.433596   -2.645809    0.608180
H       0.805704    2.031751    0.312631
H       0.054153    1.714462   -1.256238
H      -0.962899    1.914396    0.176992
H      -0.759606   -0.539642   -0.440285
H       1.720021    1.075394    2.020846
H       0.623239    0.284473    3.175560
H       2.162665   -0.478005    2.743437
