17

C      -0.007558    1.462930    0.023434
C      -0.050052   -0.032618   -0.039668
C      -0.090977   -0.961468    1.196047
C       1.017080   -1.064442    0.187441
N       0.201202   -2.086370   -0.592166
C      -0.804265   -2.172508    0.580056
C      -1.927813   -1.667417   -0.341881
C      -0.755549   -0.961707   -1.045381
H       0.637562    1.803723    0.840424
H       0.383426    1.891796   -0.906325
H      -1.004754    1.886202    0.193140
H      -0.081300   -0.583421    2.210422
H       2.097642   -1.028400    0.254263
H      -0.869038   -3.106318    1.139244
H      -2.333870   -2.475578   -0.956373
H      -2.733453   -1.064177    0.084257
H      -0.772078   -0.690719   -2.102157
