16

C      -0.052604    1.464092   -0.248325
C      -0.060871   -0.031685    0.087302
N      -1.409667   -0.578331    0.068980
C      -1.814656   -1.182566   -0.962202
N      -3.060989   -1.751613   -1.150780
C      -3.112003   -2.373857   -2.394909
C      -1.930322   -2.159065   -2.980641
O      -1.115064   -1.423563   -2.137016
H       0.956592    1.879067   -0.151986
H      -0.395316    1.633614   -1.274185
H      -0.718527    2.011561    0.425387
H       0.613763   -0.563442   -0.598545
H       0.338227   -0.170351    1.099422
H      -3.742701   -1.796911   -0.416141
H      -3.985438   -2.894399   -2.747183
H      -1.521279   -2.427354   -3.937989
