19

O      -0.096480    1.371880    0.108256
C       0.055879   -0.008169    0.083293
C       0.883959   -0.788454   -1.002117
C       0.768104   -1.935646    0.049813
C       0.859541   -0.822118    1.135690
C      -0.742308   -2.233047   -0.057034
C      -1.575297   -2.437794    1.222623
O      -1.939261   -1.037720    1.265798
C      -1.271743   -0.777947    0.009222
H       0.769785    1.774910    0.224319
H       0.438466   -0.943133   -1.989828
H       1.900310   -0.398277   -1.100916
H       1.457413   -2.778561    0.050800
H       1.883205   -0.452431    1.240768
H       0.407018   -0.977116    2.115431
H      -0.999436   -2.857050   -0.913627
H      -2.459052   -3.074206    1.090055
H      -1.037199   -2.757871    2.123278
H      -1.955398   -0.381396   -0.746960
