18

C      -0.125976    1.557128    0.497655
C      -0.050670    0.099464    0.012690
C       0.984418   -0.697983    0.815477
C      -1.456431   -0.524743    0.010414
C      -1.723076   -1.954469    0.359149
N      -2.146626   -0.886023    1.268812
C      -2.339809    0.084201   -0.970042
N      -3.005253    0.569165   -1.781546
H       0.850735    2.041303    0.407945
H      -0.846393    2.134995   -0.087611
H      -0.430145    1.606713    1.549162
H       0.277204    0.108781   -1.034475
H       0.693793   -0.817564    1.866263
H       1.162036   -1.690351    0.393078
H       1.938243   -0.163030    0.811371
H      -2.534024   -2.477600   -0.137802
H      -0.874368   -2.573486    0.629648
H      -1.489279   -0.801158    2.041233
