22

C       0.478634    1.086803    1.090789
C      -0.323461    0.443136   -0.039806
N       0.553555    0.076401   -1.148723
C       0.996456    1.099302   -2.092332
C       0.997011    0.147437   -3.243806
C      -0.010840   -0.643896   -2.326197
C      -1.150278    0.243439   -2.916149
C      -0.048232    1.254335   -3.238175
C      -0.136631    2.473486   -4.105607
H       1.273013    0.415834    1.429349
H       0.945179    2.020778    0.759238
H      -0.169014    1.323799    1.940592
H      -0.794382   -0.480911    0.319461
H      -1.138699    1.122591   -0.339173
H       1.703424    1.882218   -1.843974
H       1.764840   -0.151950   -3.942288
H      -0.120894   -1.723680   -2.232604
H      -1.542025   -0.204794   -3.834295
H      -1.985483    0.529955   -2.267343
H      -0.809020    3.222308   -3.670311
H       0.845213    2.944511   -4.228239
H      -0.512861    2.231573   -5.106739
