14

N       0.354070    1.201816   -0.007287
C       0.151421   -0.025725    0.090523
O       0.993667   -1.078353    0.366952
C      -0.098248   -2.044794    0.337697
C      -1.091187   -0.915214   -0.054265
C      -2.218935   -0.648864    0.805956
C      -3.156504   -0.447119    1.539543
C      -4.275711   -0.164164    2.403438
O      -4.767609   -0.964496    3.164833
H       1.333111    1.442429    0.153935
H       0.074606   -2.815642   -0.415323
H      -0.263482   -2.484987    1.322259
H      -1.413431   -0.975665   -1.098676
H      -4.663380    0.870495    2.316410
