15

C      -0.137099    1.427834   -0.120526
C       1.258428    0.965677    0.112353
C       0.135178   -0.063835    0.043876
C      -0.295800   -0.748762    1.267664
N      -0.701970   -2.020100    1.179138
C      -1.067830   -2.536764    2.343953
N      -1.056190   -1.908390    3.523176
N      -0.641492   -0.649586    3.535039
N      -0.260684   -0.057703    2.427319
H      -0.648680    1.913740    0.701653
H      -0.425790    1.756301   -1.112155
H       1.959521    0.966337   -0.714102
H       1.688014    1.139885    1.091590
H       0.075659   -0.688248   -0.838540
H      -1.410720   -3.568589    2.357468
