14

O      -0.054836   -0.029495   -0.219746
C      -0.051157    1.140425    0.056879
C      -1.224615    2.097425    0.128699
C      -0.617552    3.295343    0.299238
C       0.060600    4.192603   -0.683686
C       1.301740    4.273479    0.109881
C       0.721873    3.204268    1.065520
C       1.175212    2.097057    0.105838
N       1.282672    3.242854   -0.972741
H      -2.104100    1.891346   -0.470126
H      -0.287163    4.745339   -1.545443
H       2.071442    5.026691    0.205471
H       0.749185    3.149292    2.151043
H       2.152734    1.619584    0.173133
