22

C      -0.081823    1.510070    0.109332
C      -0.025670   -0.002051   -0.029135
O      -1.339853   -0.511186    0.050453
C      -1.405727   -1.913943   -0.066136
C      -2.863590   -2.341044    0.030057
C      -3.032175   -3.857738   -0.065808
C      -4.501315   -4.272393   -0.154596
N      -4.765412   -5.537055    0.291276
O      -5.369996   -3.546399   -0.595664
H       0.923938    1.937005    0.051405
H      -0.691214    1.945127   -0.687813
H      -0.524381    1.790723    1.069307
H       0.435493   -0.285377   -0.991215
H       0.602036   -0.440388    0.766290
H      -0.972941   -2.241630   -1.028875
H      -0.805919   -2.393068    0.729189
H      -3.279571   -1.975978    0.975276
H      -3.441752   -1.866676   -0.766953
H      -2.537955   -4.234206   -0.973035
H      -2.547959   -4.364339    0.778245
H      -4.039329   -6.164335    0.588555
H      -5.696770   -5.899021    0.167390
