17

O      -0.034202    1.344589    0.054451
C       0.035530   -0.027843    0.027602
C       0.732755   -0.964554    1.043753
C       0.040797   -1.887814    0.011784
O       0.083180   -3.259983   -0.055458
C      -1.240240   -0.935805   -0.010023
C      -1.753418   -0.932052   -1.430834
C      -0.647045   -0.959629   -2.181428
C       0.483226   -0.971803   -1.179230
H       0.856447    1.696637    0.157617
H       1.827256   -0.969739    1.044591
H       0.328786   -0.966060    2.060989
H      -0.153779   -3.618426    0.806638
H      -1.923147   -0.924856    0.840847
H      -2.790072   -0.920422   -1.735061
H      -0.546371   -0.962151   -3.257160
H       1.526244   -0.986256   -1.499171
