20

C       0.292111    0.880753    0.471485
O      -0.405495    0.133806   -0.514215
C       0.410773   -0.538957   -1.447180
C       0.466664   -2.064128   -1.164121
N      -0.865940   -2.656763   -0.993658
C       1.188619   -2.801967   -2.333704
N       1.366996   -4.232876   -2.171997
C       1.233106   -2.304633    0.074129
N       1.874063   -2.487192    1.018738
H       0.939433    0.248485    1.090401
H       0.900186    1.672941    0.011832
H      -0.466172    1.343658    1.107031
H      -0.044931   -0.410334   -2.438398
H       1.422273   -0.111821   -1.481408
H      -1.366450   -2.121885   -0.287863
H      -1.383169   -2.526347   -1.861059
H       0.587742   -2.617314   -3.234580
H       2.164800   -2.335213   -2.501006
H       2.031630   -4.415322   -1.425191
H       0.485998   -4.643037   -1.872926
