21

C      -0.250778    1.531389   -0.093059
C      -0.145822    0.032545    0.083733
C      -1.321050   -0.765194   -0.439767
O       1.140062   -0.534065   -0.227619
C       0.710238   -0.553005    1.136159
C       1.523656    0.241004    2.138039
C       2.932579    0.601887    1.727181
C       0.818841    1.012020    3.177624
O       1.385314   -0.264063    3.475183
H       0.622013    2.048918    0.308523
H      -0.337079    1.779686   -1.156384
H      -1.143344    1.916862    0.411556
H      -1.464696   -0.576920   -1.509467
H      -1.155974   -1.836180   -0.300709
H      -2.244985   -0.483397    0.076616
H       0.445469   -1.542703    1.513092
H       2.932088    1.223346    0.828344
H       3.435954    1.135757    2.536837
H       3.503862   -0.302967    1.497355
H       1.310254    1.865259    3.645178
H      -0.270082    1.050808    3.176927
