17

O      -0.123095    1.305308    0.193699
C      -0.010372   -0.027578    0.032650
N      -0.052763   -0.677547   -1.099962
C       0.108040   -2.003273   -0.734954
C       0.243987   -2.123174    0.616373
N       0.166273   -0.823955    1.119693
C       0.249195   -0.377270    2.481880
C      -0.333430   -1.199149    3.598529
C       1.167099   -1.056674    3.460476
H      -0.239636    1.668418   -0.693053
H       0.115138   -2.789039   -1.474181
H       0.384791   -2.973958    1.260646
H       0.151998    0.698909    2.535969
H      -0.837341   -0.677481    4.404356
H      -0.776376   -2.153488    3.336810
H       1.725639   -1.915930    3.106683
H       1.702057   -0.436344    4.170710
