14

C       0.008172    1.486143    0.134630
O       1.282788    2.120660   -0.103589
C       2.126982    1.463804   -0.907427
N       3.164182    2.043599   -1.450355
O       3.808806    1.002272   -2.146923
C       3.122436   -0.140418   -1.981564
C       2.031902    0.066966   -1.200466
C       0.944287   -0.697084   -0.633829
C      -0.001930   -0.017027    0.023445
H      -0.281757    1.801944    1.141425
H      -0.724732    1.922085   -0.562992
H       3.529449   -1.009101   -2.476243
H       0.914844   -1.776858   -0.726020
H      -0.848821   -0.518009    0.480699
