13

C      -0.147390   -3.821972   -0.012086
C      -0.091237   -2.615781   -0.003162
C      -0.030510   -1.258106    0.005284
C       0.030927   -0.049319    0.017123
C       0.055354    1.382131   -0.000123
O       0.523709    2.062916    1.170332
C       1.331153    2.158255   -0.006399
C       2.616912    1.520656    0.001502
C       3.707110    1.016344   -0.017599
H      -0.194929   -4.882804   -0.018700
H      -0.804166    1.856803   -0.474090
H       1.298015    3.135810   -0.487618
H       4.666522    0.560283   -0.026445
