17

C       0.003628    1.301891    0.038806
O      -0.185044   -0.092677   -0.142040
C       0.651701   -0.657910   -1.122496
C       2.065892   -0.677812   -0.692375
N       3.162609   -0.584042   -0.343956
C       0.126032   -2.056015   -1.426223
N       0.795901   -3.087484   -1.139742
O      -1.083902   -1.936325   -2.014771
C      -1.780907   -3.137132   -2.324527
H       1.016250    1.530808    0.395143
H      -0.179781    1.852172   -0.895735
H      -0.722434    1.616915    0.790033
H       0.598306   -0.069964   -2.054476
H       0.331881   -3.956043   -1.400910
H      -2.731750   -2.829254   -2.759352
H      -1.226213   -3.742240   -3.051480
H      -1.965624   -3.729840   -1.421355
