23

C      -0.137842    1.609488    0.024855
C      -0.026861    0.072801    0.012010
C      -1.435711   -0.533312    0.003707
O      -2.107372   -0.167761    1.202326
C       0.717206   -0.417278   -1.249093
C       2.159901    0.104070   -1.326347
C       2.870613   -0.011002   -0.004587
C       2.236376   -0.247245    1.143165
C       0.743668   -0.416260    1.261785
H       0.838560    2.078964    0.169238
H      -0.557671    1.979442   -0.917989
H      -0.795138    1.931227    0.836227
H      -1.983783   -0.168941   -0.880891
H      -1.359471   -1.629800   -0.082088
H      -2.994652   -0.535909    1.175330
H       0.740443   -1.515016   -1.237106
H       0.164235   -0.124285   -2.150098
H       2.711068   -0.450756   -2.096368
H       2.172416    1.151129   -1.662808
H       3.951017    0.114209   -0.010844
H       2.808390   -0.331384    2.064820
H       0.375609    0.111063    2.148719
H       0.513791   -1.476771    1.446474
