17

C      -0.240279    1.641127   -0.000753
C      -0.097802    0.104135    0.094716
C       0.688301   -0.322906    1.335978
C      -1.483670   -0.513536    0.087666
O      -2.053351   -0.941616    1.061957
C      -2.196038   -0.580383   -1.289704
O      -1.627721   -0.256911   -2.310428
C      -3.556958   -1.066548   -1.264306
C      -4.694545   -1.459606   -1.268979
H       0.752007    2.100075   -0.032613
H      -0.779450    1.939689   -0.902934
H      -0.769107    2.036984    0.872474
H       0.407389   -0.231860   -0.817658
H       0.170260   -0.014768    2.248064
H       0.810076   -1.409023    1.376995
H       1.682191    0.133904    1.329061
H      -5.699128   -1.808047   -1.269667
