13

O      -0.001030    0.027204    0.003979
C      -0.022171    1.230761    0.010171
C      -1.308680    2.140666    0.032879
C      -0.671752    3.480553    0.030529
C       0.670356    3.398966    0.011406
N       1.092438    2.068683   -0.000993
N       1.251770    4.640075    0.009656
C       0.209035    5.426578    0.027840
O      -1.002244    4.804499    0.041947
H      -1.922000    1.904801   -0.843311
H      -1.897011    1.896084    0.923698
H       2.037359    1.723910   -0.016150
H       0.194440    6.504043    0.033376
