12

N       0.110705    1.396418    0.160263
C       0.013628    0.030209    0.052120
C      -1.106320   -0.767593    0.016757
O      -0.648938   -2.083270   -0.025758
C       0.682420   -1.973565   -0.019639
N       1.145210   -0.762170    0.024917
C      -2.474469   -0.494826    0.014220
C      -3.648395   -0.214017    0.005382
H       0.983979    1.769632   -0.181578
H      -0.698291    1.912210   -0.152663
H       1.248758   -2.891588   -0.052824
H      -4.683036    0.023653    0.010785
