17

C       0.032702    1.567480    0.007229
C       0.018619    0.035076    0.045417
C       0.798207   -0.519854    1.242268
C      -1.436055   -0.544937    0.024011
O      -1.452699   -1.961751    0.044230
C      -2.180531   -0.108588    1.225237
N      -2.724526    0.264603    2.172031
C      -2.150422   -0.057845   -1.183899
N      -2.653394    0.276440   -2.168390
H       1.065700    1.922671   -0.039071
H      -0.497698    1.961415   -0.863903
H      -0.425247    1.986634    0.908834
H       0.471447   -0.341685   -0.882275
H       0.391454   -0.139658    2.184692
H       0.765177   -1.610701    1.272163
H       1.843292   -0.205310    1.176210
H      -1.029879   -2.273311   -0.765766
