18

C      -0.145321    1.430213   -0.202187
C       1.266874    1.007700    0.071903
C       0.162526   -0.033102    0.056764
C      -0.283279   -0.717500    1.298405
C      -0.334928   -0.081125    2.546685
N      -0.728780   -0.662575    3.679400
C      -1.100710   -1.944456    3.618135
C      -1.092501   -2.681269    2.438700
C      -0.678457   -2.056848    1.268270
H      -0.681253    1.969394    0.571329
H      -0.414749    1.715714   -1.212991
H       1.975151    1.000675   -0.749146
H       1.701738    1.256461    1.033817
H       0.140299   -0.675213   -0.818524
H      -0.040027    0.962657    2.637585
H      -1.418257   -2.399006    4.553393
H      -1.403425   -3.720353    2.437676
H      -0.660115   -2.603718    0.329791
