18

C      -0.130119    1.529013   -0.127199
C      -0.036824    0.023849   -0.004046
C      -1.230934   -0.743434   -0.534533
N       1.304893   -0.527672   -0.224078
C       0.720830   -0.589070    1.145392
C       1.348086    0.179857    2.177330
C       1.850595    0.813561    3.079376
C       2.418059    1.527549    4.087611
C       2.920924    2.160828    4.985019
H       0.772123    2.007232    0.257004
H      -0.249872    1.814358   -1.178081
H      -0.992317    1.911772    0.428988
H      -1.348541   -0.569944   -1.610541
H      -1.120870   -1.821137   -0.374523
H      -2.156262   -0.421740   -0.045078
H       1.245167   -1.453753   -0.643358
H       0.353792   -1.558796    1.477793
H       3.365391    2.717769    5.771987
