18

C       0.056066    1.495218   -0.075613
C      -0.053573   -0.034767    0.061274
C       0.657617   -0.507704    1.251565
N       1.225637   -0.850747    2.197410
C      -1.524707   -0.496231    0.110663
O      -2.158256   -0.080170   -1.076731
C      -3.065683   -1.116383   -1.437061
C      -2.326891   -2.367587   -0.967704
O      -1.626257   -1.905622    0.184596
H       1.102648    1.802764   -0.127263
H      -0.456680    1.815192   -0.984244
H      -0.403560    1.995042    0.781973
H       0.394250   -0.518141   -0.814713
H      -2.024124   -0.067412    0.995434
H      -4.025184   -0.995506   -0.914352
H      -3.231286   -1.068694   -2.515057
H      -2.988202   -3.186252   -0.672606
H      -1.624373   -2.730210   -1.730221
