22

C      -0.096398    1.578285    0.960344
C      -0.147272    0.615471   -0.228452
C       1.049520   -0.351931   -0.209226
N      -1.459788   -0.042977   -0.228937
C      -1.810439   -0.822395   -1.403746
C      -3.089456   -1.638470   -1.107312
N      -2.829737   -2.549613    0.007922
C      -2.044113    0.059494   -2.560823
N      -2.227294    0.731346   -3.482889
H       0.841413    2.141920    0.968321
H      -0.931432    2.281730    0.919364
H      -0.161937    1.028494    1.907375
H      -0.097692    1.209299   -1.150515
H       1.043852   -0.955913    0.706114
H       1.043370   -1.034375   -1.064953
H       1.995116    0.199095   -0.240708
H      -1.555207   -0.666399    0.569357
H      -1.026742   -1.539114   -1.717373
H      -3.870678   -0.935411   -0.805104
H      -3.418442   -2.131698   -2.032925
H      -3.702303   -2.859776    0.419981
H      -2.347017   -3.382176   -0.315693
