16

C      -0.036380    1.422500    0.048769
N      -0.028568   -0.023226    0.055932
C       0.534221   -0.620443   -0.928897
N       1.149556    0.006358   -2.024301
C       1.749816   -0.642267   -3.074550
C       1.786366   -1.993361   -3.119331
C       1.184338   -2.729216   -2.045841
C       0.597811   -2.073514   -1.019991
F       0.035251   -2.734923   -0.017216
H       0.978413    1.860961    0.053908
H      -0.568581    1.848220   -0.821634
H      -0.545858    1.788009    0.943632
H       1.141002    1.013353   -2.024289
H       2.176385   -0.002827   -3.836900
H       2.258868   -2.504858   -3.945910
H       1.190594   -3.813051   -2.041089
