23

C      -0.387126    1.931220   -0.651359
C      -0.096934    0.497307   -0.182871
C       0.577331   -0.313507   -1.246572
O       1.874709    0.143570   -1.673793
C       2.331575   -1.228046   -1.797949
C       0.953154   -1.774444   -1.439539
C       0.718001   -3.027321   -0.645692
C      -0.052679   -1.097572   -2.371516
C      -1.510836   -1.499290   -2.303401
H       0.536587    2.424601   -0.965917
H      -1.076515    1.936181   -1.501690
H      -0.835014    2.522421    0.152883
H       0.546945    0.523830    0.704827
H      -1.027131    0.002156    0.116291
H       2.725937   -1.448533   -2.798381
H       3.099574   -1.449062   -1.045207
H       1.347151   -3.051144    0.251426
H      -0.321914   -3.121351   -0.321894
H       0.955776   -3.919932   -1.238029
H       0.294638   -0.846495   -3.374000
H      -1.850001   -1.671204   -1.277871
H      -2.147815   -0.717449   -2.730517
H      -1.694172   -2.421157   -2.866769
