16

C      -0.138707   -1.237345    0.030862
C      -0.076051   -0.036834    0.046926
C      -0.003274    1.396977    0.021576
N       0.591488    2.083512    1.221820
C       1.281211    2.135864   -0.027517
C       2.750254    1.818080   -0.334612
C       2.495982    2.230008   -1.805718
C       1.842568    3.286395   -0.879031
O       3.059409    3.243714   -0.031684
H      -0.192280   -2.297865    0.031146
H      -0.852758    1.889265   -0.449141
H       0.088654    2.946646    1.416713
H       3.403317    1.054646    0.083186
H       3.382662    2.586735   -2.329405
H       1.848041    1.598108   -2.417570
H       1.420088    4.263509   -1.114767
