15

C       0.096338    1.400595   -0.065720
N       0.075852   -0.038960   -0.012667
N       0.125182   -0.803187   -1.160749
C       0.090071   -2.034174   -0.747536
C       0.121335   -3.228500   -1.633071
N       0.020433   -2.093699    0.624911
C       0.008967   -0.791945    1.140459
O      -0.045782   -0.432422    2.299038
H       1.016483    1.760021   -0.536517
H      -0.762189    1.781994   -0.626951
H       0.048329    1.757130    0.964578
H       0.175548   -2.897962   -2.671153
H       0.990045   -3.861361   -1.419678
H      -0.776660   -3.843486   -1.506222
H      -0.020456   -2.912572    1.206069
