15

C       0.085758    1.478256    0.008449
C      -0.065410   -0.006378   -0.015873
C      -1.218326   -0.696310   -0.127421
C      -1.167407   -2.132877   -0.133126
C       0.015572   -2.773653   -0.027828
C       1.254721   -2.033695    0.093106
N       2.401457   -2.571052    0.196740
O       1.132211   -0.637701    0.090252
H       0.725872    1.813276   -0.815131
H      -0.886465    1.966220   -0.077974
H       0.563773    1.801059    0.939875
H      -2.156810   -0.165387   -0.210320
H      -2.090656   -2.695759   -0.223153
H       0.106403   -3.851743   -0.027226
H       3.128004   -1.858522    0.269397
