19

C      -0.224523    1.009173   -1.083187
C      -0.079612    0.145825    0.161623
O       1.087053   -0.696371    0.118857
C       0.993819   -1.794896   -0.670854
C       1.352077   -2.018466   -1.977578
C       1.098706   -3.398316   -2.251904
C       0.587708   -3.967996   -1.108630
N       0.119710   -5.263801   -0.791348
N       0.520584   -2.980880   -0.150081
H       0.658803    1.640330   -1.217479
H      -0.346546    0.386397   -1.973519
H      -1.103550    1.655822   -0.991635
H       0.056740    0.766295    1.052360
H      -0.973896   -0.473955    0.312200
H       1.769403   -1.283256   -2.647131
H       1.284787   -3.915315   -3.181302
H      -0.201404   -5.737764   -1.627179
H       0.846605   -5.842962   -0.378922
H       0.170183   -3.110296    0.783671
