17

C      -0.013693    1.501643   -0.027788
O       1.159543    0.665603   -0.020593
C      -0.118229    0.047717    0.012777
C      -0.479005   -0.939649    1.128315
C      -2.019048   -1.099729    1.279728
C      -2.051718   -1.906644   -0.039846
O      -1.945105   -1.049091   -1.201608
C      -0.507779   -0.969852   -1.064626
C      -0.507848   -2.080493    0.028925
H      -0.172702    2.081535    0.880477
H      -0.201106    2.033834   -0.959268
H       0.150384   -0.936699    2.017247
H      -2.253431   -1.750432    2.128788
H      -2.635773   -0.198405    1.329272
H      -2.801305   -2.687100   -0.179784
H       0.019589   -0.965993   -2.020362
H       0.064220   -3.003128    0.025625
