21

C      -0.032402    1.545397   -0.001641
C       0.014154    0.028639    0.000983
C       1.048400   -0.700736   -0.935753
C       1.197619   -1.742082    0.173748
C      -0.128800   -2.522155    0.602765
C      -0.039315   -1.770182    1.979008
C       0.749000   -0.691506    1.233337
C      -1.343182   -1.960236   -0.086479
C      -1.307377   -0.642702   -0.293458
H       0.960495    1.974458    0.168607
H      -0.399972    1.925413   -0.962260
H      -0.700096    1.922454    0.781832
H       0.702893   -0.995670   -1.930646
H       1.975380   -0.121923   -1.019621
H       2.109747   -2.333646    0.268187
H      -0.084324   -3.611627    0.609903
H      -0.982320   -1.523840    2.474924
H       0.624184   -2.291270    2.677372
H       1.444881   -0.036972    1.762854
H      -2.202748   -2.585185   -0.304208
H      -2.124164   -0.071015   -0.723833
