23

C       0.421757    1.336528    0.517860
C       0.034548   -0.063055    0.025833
C      -1.507628   -0.164581   -0.152277
C      -2.254285    0.000703    1.088833
C      -2.851632    0.130217    2.124587
C       0.739573   -0.525616   -1.258885
C       0.740400   -2.034177   -1.450639
C       0.638194    0.318453   -2.510345
C       1.956902    0.200253   -1.785834
H       1.477886    1.385547    0.794890
H       0.233037    2.104088   -0.241875
H      -0.169186    1.596383    1.400104
H       0.309941   -0.774164    0.815915
H      -1.830430    0.593073   -0.878277
H      -1.766588   -1.133750   -0.593072
H      -3.390338    0.244478    3.032217
H      -0.272927   -2.450186   -1.479790
H       1.230777   -2.310854   -2.389073
H       1.278019   -2.532081   -0.634974
H       0.518708   -0.188477   -3.462267
H       0.122681    1.271548   -2.453374
H       2.322176    1.075443   -1.263212
H       2.739669   -0.400019   -2.237948
