16

O      -0.004561   -0.023262    0.146357
C      -0.061400    1.167314    0.035348
C      -1.325651    2.048078    0.053078
C      -0.730321    3.433835    0.269812
C       0.113061    3.594278    1.548710
C       1.339546    4.046357    0.776015
C       1.313204    2.649510    1.300274
N       1.105377    2.032116   -0.043474
C       0.647151    3.406502   -0.464820
H      -1.850998    1.973574   -0.907261
H      -2.007153    1.695391    0.831141
H      -1.362709    4.291269    0.040407
H      -0.205290    3.872154    2.544728
H       2.044873    4.852357    0.906426
H       1.882823    2.167842    2.082899
H       0.767883    3.662913   -1.515189
