11

F      -0.005556    0.078723    0.002891
C      -0.016051    1.392021    0.011224
N      -1.211998    1.949589    0.030059
C      -1.207817    3.288896    0.036801
C      -0.031552    4.036536    0.024594
C       1.152383    3.306046    0.004510
N       1.173697    1.973214   -0.002554
C      -2.487531    3.949493    0.057671
N      -3.495156    4.515619    0.074324
H      -0.044433    5.117819    0.030335
H       2.117512    3.804908   -0.006236
