23

C       0.025376    1.526178    0.165146
C       0.029386    0.006457    0.021093
C       0.459814   -0.424373   -1.389443
C       0.392436   -1.901617   -1.690492
C       0.759222   -2.915214   -0.905265
C       1.336489   -2.847069    0.487408
C       0.694450   -1.831455    1.444914
C       1.279727   -1.940270    2.850592
O       0.899642   -0.488630    1.028982
H       1.029242    1.927684   -0.006699
H      -0.659267    1.986193   -0.553620
H      -0.284992    1.808307    1.174401
H      -0.987393   -0.378367    0.206436
H      -0.166439    0.112770   -2.111345
H       1.485966   -0.060777   -1.550501
H       0.029906   -2.152422   -2.685508
H       0.668951   -3.918390   -1.317423
H       1.263332   -3.838451    0.949650
H       2.411577   -2.618711    0.431118
H      -0.389420   -2.030878    1.486613
H       2.355235   -1.736734    2.832146
H       0.807365   -1.210549    3.513090
H       1.123787   -2.941284    3.263664
