21

C       0.037706    1.591784   -0.131560
C       0.013089    0.078182   -0.063708
C       1.106421   -0.666526   -0.782531
C       1.115587   -0.627846    0.740702
C       2.123603    0.100672    1.450717
C       2.968315    0.705427    2.058996
C      -1.332188   -0.598273   -0.005950
C      -2.473564   -0.085824    0.838592
C      -2.566689   -0.033379   -0.666951
H       1.062839    1.963157   -0.071506
H      -0.396988    1.949103   -1.070699
H      -0.518417    2.044359    0.695953
H       0.870831   -1.615443   -1.252917
H       1.869403   -0.087637   -1.290902
H       0.800102   -1.544208    1.232376
H       3.713970    1.236889    2.595869
H      -1.253061   -1.682215   -0.047141
H      -3.077388   -0.812139    1.371335
H      -2.344098    0.851400    1.368024
H      -2.499307    0.940005   -1.139204
H      -3.235697   -0.721961   -1.171332
