17

O      -0.797090    1.119923    0.449451
C       0.143921    0.781581   -0.221639
C       1.447338    1.558542   -0.262001
O       2.411698    0.980219   -1.152401
C       2.435573    2.158070   -1.988377
C       1.440756    2.899090   -1.066728
C       0.130391    3.357543   -1.648086
C       0.024915    3.910735   -3.002987
O      -0.402938    2.575658   -2.720778
H       0.133583   -0.123694   -0.866943
H       1.827155    1.649944    0.764283
H       3.439077    2.591240   -2.054429
H       2.053444    1.942651   -2.991605
H       1.889246    3.718287   -0.499304
H      -0.614609    3.659542   -0.912208
H      -0.770620    4.615485   -3.237707
H       0.915633    3.993251   -3.624882
