20

C      -0.004802    1.511429    0.282378
C       1.525414    1.532595   -0.116207
C       1.161540    0.316303   -0.979843
C      -0.000649   -0.012098   -0.084636
C      -0.817200   -0.918391   -1.029187
C       0.241992   -1.014760   -2.149642
C       0.718661    0.411112   -2.471427
C       2.085389   -0.186640   -2.812348
N       1.723302   -0.987414   -1.558066
H      -0.254959    1.780066    1.310237
H      -0.603233    2.115317   -0.404786
H       1.923116    2.420870   -0.611913
H       2.155295    1.278063    0.740714
H       0.345712   -0.573074    0.789494
H      -1.079420   -1.880832   -0.582215
H      -1.733933   -0.468305   -1.426452
H       0.114707   -1.749767   -2.947025
H       0.157169    1.208968   -2.973963
H       2.169625   -0.793032   -3.719540
H       2.975269    0.434978   -2.678426
