18

C      -0.059126    1.361423   -0.059880
O       0.261673   -0.035048   -0.040988
C       0.554854   -0.543732    1.172053
O       0.576705    0.116034    2.182540
C       0.818585   -2.030286    1.081376
C       1.518979   -2.576289    2.321814
C       1.311855   -4.081629    2.474698
N       2.234282   -4.705332    3.265146
O       0.396820   -4.682790    1.944993
H       0.780836    1.955586    0.308960
H      -0.269607    1.603292   -1.101689
H      -0.932737    1.565679    0.564352
H      -0.143228   -2.544318    0.967941
H       1.375176   -2.241249    0.164163
H       2.587871   -2.336788    2.315224
H       1.102432   -2.082107    3.207652
H       2.916621   -4.188799    3.792263
H       2.074813   -5.670758    3.503394
