19

C      -0.175625    1.589869   -0.003250
C      -0.001441    0.077645    0.015392
C       1.223712   -0.597521   -0.650663
C       2.176998   -0.175766    0.527142
C       3.142917   -1.321988    0.744282
C       2.398168   -2.416359    0.567893
C       1.018611   -1.873357    0.251687
C       0.779385   -0.620723    1.163482
O       0.433093   -0.711255    2.494170
H       0.754893    2.126078    0.204746
H      -0.538651    1.928374   -0.979693
H      -0.916916    1.907285    0.740330
H      -0.951858   -0.417818   -0.218504
H       1.487947   -0.604919   -1.708486
H       2.527398    0.852099    0.610903
H       4.188636   -1.235062    1.003666
H       2.672810   -3.459140    0.637588
H       0.184652   -2.545283    0.044885
H       0.227312    0.171838    2.820010
