12

O       0.056006   -0.055463   -0.256752
C      -0.040232    1.137179   -0.077966
C       1.159575    1.977191    0.095254
N       2.106234    2.626305    0.233959
C      -1.275295    1.860486   -0.009577
C      -2.317605    2.468378    0.052859
C      -3.571335    3.161029    0.112396
C      -3.871320    4.084235    1.232695
O      -3.539932    4.584280   -0.050621
H      -4.404648    2.665389   -0.382381
H      -4.910082    4.199542    1.537194
H      -3.122895    4.236192    2.007209
