21

C      -0.025647    1.502973   -0.016494
C      -0.006808    0.005429   -0.026066
C      -0.020865   -0.772822   -1.113160
C       0.004374   -2.241812   -0.800711
C       0.038611   -2.261409    0.731525
O       0.066768   -3.242977    1.428337
C       0.031587   -0.807160    1.260705
C       1.309066   -0.568363    2.091002
C      -1.214417   -0.600586    2.145728
H       0.858454    1.912625    0.487181
H      -0.051116    1.904684   -1.033173
H      -0.899131    1.890208    0.522264
H      -0.047846   -0.394291   -2.129721
H      -0.873477   -2.792915   -1.163615
H       0.878571   -2.771246   -1.202568
H       2.210179   -0.677279    1.479241
H       1.311316    0.437006    2.523939
H       1.359269   -1.295520    2.906528
H      -1.210310   -1.327794    2.962743
H      -1.223899    0.404932    2.578224
H      -2.138122   -0.733521    1.573697
