16

C       0.034949    1.491955    0.048611
C      -0.076546    0.009332    0.074544
C      -1.128975   -0.864987   -0.043646
C      -2.536378   -0.556698   -0.242500
O      -3.416247   -1.386310   -0.338677
C      -0.514101   -2.161062    0.075347
C      -1.170514   -3.499869    0.023490
N       0.776323   -2.057315    0.247143
O       1.054817   -0.672645    0.246536
H       0.697362    1.811360   -0.762298
H      -0.942513    1.954146   -0.095568
H       0.462261    1.859652    0.986974
H      -2.772756    0.528484   -0.304275
H      -1.692280   -3.633397   -0.928037
H      -0.424063   -4.286592    0.146383
H      -1.927448   -3.585373    0.807860
