13

N       0.064255    1.397642    0.047163
C       0.018429    0.017945    0.041610
C      -1.109434   -0.721283    0.080323
F      -2.317366   -0.188460    0.064744
O      -1.193754   -2.060589    0.135562
N      -0.034238   -2.817061    0.156069
C       1.077528   -2.165014    0.108791
C       1.268669   -0.720030    0.033971
N       2.386629   -0.084336   -0.043833
H       0.967635    1.739088   -0.256886
H      -0.725673    1.874506   -0.359439
H       1.951597   -2.812160    0.121765
H       3.180854   -0.724621   -0.049234
