21

C      -0.881977    1.066002   -0.460699
C       0.134861   -0.034710   -0.199035
C       1.428753   -0.074153   -1.059513
C       2.257470   -0.407826    0.223257
C       2.513232   -1.910107    0.367945
C       3.548587    0.381694    0.414665
C       1.029490    0.062804    1.068352
H      -0.406743    2.053670   -0.435032
H      -1.353035    0.949704   -1.443570
H      -1.678809    1.061352    0.291958
H      -0.367041   -1.007825   -0.230571
H       1.470213   -0.794473   -1.882285
H       1.677575    0.916610   -1.455360
H       3.239353   -2.257689   -0.376266
H       2.913255   -2.145876    1.361075
H       1.595549   -2.492527    0.233177
H       3.375337    1.458357    0.313006
H       3.977962    0.204834    1.408307
H       4.303362    0.093345   -0.327048
H       1.141551    1.100473    1.401371
H       0.754321   -0.548918    1.932998
