21

C      -0.018733    1.576874   -0.058789
C       0.047734    0.047060   -0.035536
C       0.670374   -0.520999   -1.321939
C       0.850289   -2.009991   -1.259960
C       0.855878   -2.702538   -0.113763
C       0.737191   -2.049190    1.207854
O       0.690726   -2.695555    2.236492
C       0.749091   -0.517899    1.221369
C       2.206087   -0.049832    1.415714
H       0.975111    2.026613   -0.152404
H      -0.618291    1.926071   -0.906228
H      -0.477760    1.965388    0.856366
H      -0.985113   -0.327886   -0.000872
H       0.046424   -0.261960   -2.186622
H       1.644730   -0.048210   -1.521298
H       0.979333   -2.533780   -2.205137
H       0.963897   -3.782678   -0.095230
H       0.181549   -0.218999    2.109623
H       2.844156   -0.335646    0.573065
H       2.262540    1.035833    1.531709
H       2.621164   -0.507229    2.317859
