17

C      -0.374079    1.502572   -0.085176
C       0.036456    0.063755    0.185392
N       1.140635   -0.389638   -0.763273
C       2.173967   -0.279876    0.350939
C       1.018288   -0.203141    1.314243
C       1.148762   -1.175617    2.229020
N       2.401659   -1.796884    2.080815
C       3.038029   -1.436204    0.892409
O       4.090242   -1.874090    0.493725
H       0.494809    2.166731   -0.077719
H      -0.855982    1.581368   -1.064197
H      -1.077989    1.848621    0.678855
H      -0.842770   -0.589930    0.173921
H       1.002460   -1.372070   -0.991893
H       2.817326    0.587509    0.180499
H       0.407823   -1.618589    2.881531
H       2.806300   -2.466572    2.715444
