19

O       0.023310   -0.079063   -0.274942
C       0.021019    1.095118   -0.008384
C       1.262743    1.975393    0.020085
C       1.297890    2.846154   -1.225821
C       1.372288    4.171177   -1.093611
C       1.426153    4.757750    0.300248
C       2.445163    3.921946    1.135869
C       1.305017    2.871836    1.280118
C       0.316475    4.073336    1.155910
H      -0.929411    1.627406    0.224171
H       2.117696    1.286942    0.014010
H       1.267508    2.353794   -2.192764
H       1.411631    4.828470   -1.956842
H       1.503080    5.845406    0.306052
H       3.372769    3.617237    0.645408
H       2.666949    4.393166    2.096916
H       1.271861    2.270834    2.192035
H       0.183725    4.565471    2.122939
H      -0.656279    3.919545    0.684223
