19

C      -0.468921    1.280613    0.239793
N      -0.046243   -0.095008    0.082357
C      -0.016137   -0.808254   -1.081001
N       0.418934   -2.034199   -0.906142
C       0.690910   -2.122377    0.437947
C       0.412063   -0.940700    1.082434
C       0.526149   -0.515984    2.489860
C      -0.682655   -0.543846    3.414081
C       0.431303   -1.539027    3.593166
H       0.366450    1.922993    0.538001
H      -0.859866    1.641112   -0.713605
H      -1.255138    1.361457    0.995819
H      -0.326492   -0.370732   -2.019432
H       1.078187   -3.030183    0.875852
H       1.219544    0.302545    2.674702
H      -0.785118    0.255052    4.140237
H      -1.617923   -0.905778    3.001987
H       0.236381   -2.566371    3.309124
H       1.093247   -1.427027    4.444021
