19

C       0.139151    1.333676    0.162277
O      -0.151394   -0.026307   -0.125019
C       0.544450   -0.517275   -1.203309
C       0.106621   -0.305323   -2.665675
C       0.390210   -1.817654   -2.878214
O       0.189542   -2.558884   -3.798288
C       0.823768   -2.017662   -1.457007
C       1.944028   -1.020035   -1.099650
C       3.113361   -0.682959   -2.001430
H       1.204317    1.476285    0.390509
H      -0.132654    1.990589   -0.675586
H      -0.456144    1.606458    1.035775
H      -0.970863   -0.127983   -2.739247
H       0.640417    0.419957   -3.285309
H       0.640984   -2.887270   -0.837764
H       2.221843   -1.164936   -0.056382
H       2.812160   -0.550147   -3.043509
H       3.603004    0.240659   -1.673978
H       3.859897   -1.483402   -1.975903
