20

C       0.118207    1.483292   -0.095851
C      -0.043387   -0.006067    0.050457
C      -0.970946   -0.588271    1.091929
C       0.545621   -0.744623    1.226861
N       1.282924   -1.957403    0.973568
C       0.658214   -3.271105    0.978000
C       1.060334   -2.629978   -0.310146
C       0.011983   -2.029714   -1.230199
O       0.053493   -0.607661   -1.216871
H       1.077535    1.716847   -0.568057
H      -0.680048    1.897588   -0.720249
H       0.082811    1.972945    0.880992
H      -1.459612    0.096145    1.777042
H      -1.570418   -1.455494    0.844266
H       1.013195   -0.147470    2.004603
H       1.260371   -4.067038    1.408003
H      -0.407256   -3.345993    1.188091
H       1.978134   -2.951495   -0.797515
H       0.209014   -2.313799   -2.266562
H      -0.998291   -2.383472   -0.980529
