21

C      -0.221717    1.473129    0.023870
C       0.052510   -0.011684    0.024486
C      -0.763535   -0.929448    0.886170
O      -1.311177   -2.089489    0.306501
C       0.713919   -0.770529    1.167663
C       1.691133   -1.790140    0.592042
C       1.338438   -1.916040   -0.905717
C       0.554601   -0.631227   -1.287067
O      -0.474226   -0.845188   -2.238222
H       0.690423    2.043786   -0.186921
H      -0.957540    1.723388   -0.748292
H      -0.612981    1.814075    0.987602
H      -1.436583   -0.442174    1.592217
H      -1.276890   -2.804004    0.950813
H       0.985067   -0.267048    2.091252
H       2.709368   -1.407728    0.723449
H       1.653667   -2.756283    1.109387
H       2.226071   -2.044867   -1.530671
H       0.690447   -2.776463   -1.081835
H       1.228175    0.091464   -1.763111
H      -1.099867   -1.449230   -1.818748
