17

C       0.250243   -1.335552   -0.162680
C       0.121954   -0.143282   -0.074676
C      -0.043565    1.296652    0.010205
C      -0.265439    1.870910    1.443131
O       0.998578    2.552745    1.424007
C       1.285098    2.117437    0.087394
C      -1.008622    1.769885   -1.064644
C      -2.443677    1.940382   -0.826541
O      -1.565219    3.070368   -0.904529
H       0.368508   -2.388843   -0.230544
H      -1.103038    2.572165    1.518557
H      -0.323100    1.118721    2.236098
H       2.202691    1.523236    0.026732
H       1.332561    2.954472   -0.619783
H      -0.680833    1.540174   -2.079485
H      -3.143898    1.836327   -1.652955
H      -2.855701    1.738217    0.160917
