19

C      -0.071531    1.538115   -0.002680
C      -0.020053    0.001389   -0.003199
C       1.150579   -0.554512   -0.895804
C       2.029170   -0.691482    0.374438
C       0.751442   -0.568603    1.244216
C      -1.331845   -0.561631   -0.251578
C      -2.424661   -1.043352   -0.458445
C      -3.651923   -1.582166   -0.690500
C      -4.741618   -2.061181   -0.896619
H       0.923856    1.953179    0.185682
H      -0.423498    1.914931   -0.967496
H      -0.748482    1.903447    0.775143
H       0.894814   -1.522791   -1.330370
H       1.497694    0.109942   -1.690940
H       2.605534   -1.612773    0.475867
H       2.709450    0.153421    0.506881
H       0.787033    0.084874    2.119392
H       0.358521   -1.541713    1.545037
H      -5.699821   -2.480299   -1.077835
