19

C       0.044584    1.549310    0.006894
C       0.016757    0.022213    0.065110
O       0.617663   -0.459448    1.268294
C      -1.400060   -0.536693   -0.111379
C      -1.441909   -2.065322   -0.100316
C      -2.851063   -2.611197    0.112617
N      -3.067507   -3.857954   -0.405728
O      -3.719849   -1.997627    0.702972
H       1.061966    1.917578    0.163669
H      -0.314471    1.915980   -0.960205
H      -0.600448    1.977983    0.784156
H       0.662390   -0.374942   -0.729320
H       0.109544   -0.103009    2.006328
H      -2.045344   -0.169521    0.695940
H      -1.830158   -0.152227   -1.044051
H      -1.006497   -2.480594   -1.017133
H      -0.819127   -2.423681    0.729362
H      -2.318546   -4.411444   -0.783489
H      -3.935074   -4.316811   -0.179401
