15

C       0.027707    1.510723   -0.003402
O       1.501213    1.522726   -0.025340
C       1.517509    0.085628   -0.042296
C       1.486891   -0.653096    1.313102
O       0.023809   -0.733875    1.255591
C       0.022682   -0.039284   -0.000667
C       0.071487   -0.895572   -1.282924
O       0.685893   -0.069570   -2.262816
C       1.561872   -0.729604   -1.346530
H      -0.366954    1.966765    0.909014
H      -0.382919    1.990031   -0.895076
H       1.945570   -1.646712    1.352930
H       1.830227   -0.044745    2.155004
H      -0.571421   -1.701016   -1.618592
H       2.339189   -1.352226   -1.775570
