13

C      -0.030378    1.511664   -0.000968
C      -0.007666    0.011417   -0.005133
N      -0.041831   -0.643519   -1.170415
C      -0.019962   -1.977026   -1.127312
N       0.032854   -2.747948   -0.042167
C       0.067323   -2.102434    1.126873
C       0.048340   -0.721215    1.180432
F       0.083111   -0.085588    2.354208
H       0.860291    1.914710    0.492579
H      -0.072284    1.877464   -1.027064
H      -0.896062    1.887846    0.554436
H      -0.048447   -2.489588   -2.085307
H       0.110887   -2.689336    2.041015
