19

O      -1.449684    0.653862    1.539730
C      -1.005164    0.372115    0.218826
C      -1.836426   -0.627840   -0.454493
C      -2.567015   -1.456527   -0.939403
C      -3.457772   -2.467358   -1.504096
C      -4.207689   -3.315744   -0.476075
C      -3.609734   -3.632396    0.886220
C      -4.814295   -2.732403    0.777394
O      -4.792174   -1.375889    1.093718
H      -1.417096   -0.167643    2.041436
H      -1.053140    1.325180   -0.318843
H       0.048302    0.052626    0.206529
H      -4.186873   -1.976673   -2.162558
H      -2.866274   -3.133407   -2.146348
H      -4.776230   -4.110817   -0.951279
H      -3.719423   -4.631500    1.294546
H      -2.662663   -3.154853    1.117504
H      -5.767215   -3.149775    1.088041
H      -3.957155   -0.990078    0.800597
