20

C      -0.032060    1.469300    0.046130
N       0.035820    0.024131    0.068459
C       0.556278   -0.610953   -0.894537
C       1.171287   -0.085795   -2.172466
O       0.617921   -1.965262   -0.869525
C       0.063435   -2.609055    0.280025
C       0.267981   -4.086175    0.109240
C      -0.639363   -5.049878    0.742465
O      -0.708038   -4.792697   -0.658880
H       0.402131    1.948117   -0.842314
H      -1.079368    1.786127    0.120980
H       0.479568    1.871458    0.928877
H       2.015938    0.574601   -1.955679
H       1.521427   -0.917299   -2.783612
H       0.440417    0.490583   -2.746886
H       0.563974   -2.242906    1.184202
H      -1.001337   -2.370895    0.368602
H       1.296315   -4.391997   -0.086058
H      -0.266354   -6.032757    1.026347
H      -1.486131   -4.689959    1.326165
