16

C      -0.499943    1.413805   -0.058537
C       0.105276    0.024209   -0.032729
O       1.356131   -0.083116   -0.776482
C       2.085319   -0.509456    0.375454
C       3.154423   -1.565065    0.355214
C       3.509478   -0.129966    0.660997
C       0.866017   -0.405924    1.237963
O       0.603281   -0.567221    2.392998
H       0.214703    2.158560    0.302437
H      -0.794793    1.680619   -1.077539
H      -1.389005    1.442665    0.579115
H      -0.612123   -0.733707   -0.374170
H       3.156825   -2.291849    1.160574
H       3.418780   -1.950537   -0.623374
H       4.011675    0.439729   -0.113147
H       3.758225    0.145510    1.680361
