19

C       0.019865    1.473790   -0.303760
C       0.185390   -0.026498   -0.217285
C       1.555806   -0.645668   -0.079740
C       0.614673   -0.639782    1.092967
O       0.837033    0.116650    2.286756
C       0.273265   -0.928211    3.135269
C      -0.930246   -0.475059    3.938489
C       0.015849   -1.768699    1.867771
O      -0.465172   -2.835172    1.618969
H       0.724442    1.982837    0.359074
H       0.190490    1.826238   -1.326260
H      -0.989938    1.773972   -0.006367
H      -0.545964   -0.615275   -0.766106
H       1.763643   -1.598048   -0.556149
H       2.402519    0.028734    0.002774
H       1.049549   -1.358490    3.781354
H      -1.704268   -0.063600    3.284691
H      -1.349953   -1.323454    4.487966
H      -0.638679    0.294936    4.658659
