20

C       0.005851    1.521162   -0.090671
C       0.035618    0.004286    0.053008
C       0.225023   -0.603815   -1.341252
O      -0.244062   -1.925435   -1.463357
C      -0.012485   -2.695626   -0.304587
C      -0.152572   -1.872371    0.958405
C       0.783890   -0.674178    1.237623
C      -0.379278   -0.177831    2.114313
N      -1.127302   -0.667120    0.863138
H       0.786597    1.835601   -0.792731
H      -0.957395    1.836790   -0.505147
H       0.172326    2.064607    0.839922
H      -0.331167   -0.019411   -2.081575
H       1.297574   -0.530901   -1.601707
H      -0.754096   -3.501175   -0.318945
H       0.988888   -3.163470   -0.322671
H      -0.371411   -2.512357    1.819022
H       1.861006   -0.682648    1.447817
H      -0.619615   -0.764817    3.005303
H      -0.488978    0.886400    2.317149
