16

C      -0.854631    1.646437   -0.254005
C       0.122050    0.478876   -0.129173
C      -0.560712   -0.795339    0.351364
O      -0.001406   -1.854370    0.515142
C       0.931927    0.281108   -1.439517
O       0.853627    1.062293   -2.350283
N       1.757505   -0.839020   -1.414609
C       2.663073   -1.241358   -2.395044
O       2.948305   -0.644258   -3.395028
H      -0.328381    2.556951   -0.540874
H      -1.605031    1.446722   -1.023991
H      -1.367698    1.819607    0.696701
H       0.877884    0.698143    0.640556
H      -1.645455   -0.692916    0.564145
H       1.605897   -1.475263   -0.637208
H       3.111686   -2.215742   -2.115349
