23

C       0.083531    1.503301   -0.102284
C       0.010789   -0.016890    0.047869
O       0.736477   -0.461518    1.193757
C      -1.421170   -0.537046    0.073074
C      -2.254303   -0.476961   -1.245537
C      -2.698874   -1.920726   -0.974809
C      -4.123010   -2.383841   -0.866322
C      -3.216184   -2.937480   -1.944680
C      -1.623555   -2.080948    0.108136
H       1.125184    1.835451   -0.111914
H      -0.396867    1.836099   -1.028113
H      -0.425972    1.999256    0.733806
H       0.533602   -0.484769   -0.797063
H       0.319306   -0.071355    1.970075
H      -1.964934   -0.053117    0.894771
H      -3.036728    0.284518   -1.306845
H      -1.614564   -0.390047   -2.131939
H      -4.388967   -3.035076   -0.039158
H      -4.910804   -1.698644   -1.164630
H      -3.392885   -2.625822   -2.969672
H      -2.870756   -3.962001   -1.845471
H      -0.734331   -2.615324   -0.242966
H      -1.936010   -2.519612    1.059400
