17

C      -0.075151    1.456068   -0.025122
O      -0.011332    0.034875    0.010766
C      -1.190337   -0.615705    0.001983
C      -1.353928   -1.961416   -0.001585
C      -0.456511   -3.137017    0.003237
O      -2.741935   -2.169287   -0.004899
C      -3.271147   -0.937234   -0.002930
N      -4.639415   -0.846633   -0.077393
N      -2.413858    0.040093    0.005419
H       0.960934    1.798919   -0.020360
H      -0.580865    1.810276   -0.929363
H      -0.603603    1.854223    0.847128
H      -0.596036   -3.767552    0.890673
H      -0.598231   -3.774766   -0.878434
H       0.577631   -2.783562    0.000957
H      -5.133440   -1.623346    0.337406
H      -4.990235    0.054028    0.212570
