12

O       0.009342   -0.081556   -0.001475
C      -0.010536    1.125755    0.008543
C       1.171739    1.982016    0.002956
C       1.298396    3.342490    0.012605
C       2.703242    3.612781   -0.000014
C       3.316576    2.383029   -0.016492
O       2.411347    1.400620   -0.014908
C       3.344996    4.876544    0.003472
N       3.860618    5.912652    0.006437
H      -0.957242    1.706376    0.023242
H       0.499891    4.067169    0.026910
H       4.354214    2.091106   -0.029831
