18

O      -0.054122    0.013741    0.325578
C      -0.002750    1.191589    0.088219
C      -1.171680    2.167751   -0.044280
C      -0.489167    3.544865    0.013763
N       0.883874    3.354684   -0.512903
C       1.298505    2.002349   -0.132414
C       2.130983    1.973194    1.142709
C       2.951931    3.112906    1.557312
O       1.700940    2.831088    2.199931
H      -1.644178    1.994549   -1.020017
H      -1.924900    1.981382    0.724463
H      -1.006160    4.313898   -0.563504
H      -0.413157    3.887281    1.049042
H       0.865038    3.422213   -1.524128
H       1.886830    1.522628   -0.922863
H       2.408979    0.967850    1.460284
H       3.835320    2.943868    2.171031
H       2.951728    4.004393    0.935963
