18

C       0.077047    1.560410    0.079106
C       0.079689    0.030300    0.058940
C       0.588349   -0.535053   -1.269479
O       1.938216   -0.126514   -1.509396
C       2.778937   -1.243541   -1.764354
C       1.903077   -2.446306   -1.593292
C       0.656868   -2.053197   -1.320926
C      -0.475045   -2.881905   -1.112783
N      -1.422587   -3.525342   -0.938760
H       1.083083    1.949739   -0.097607
H      -0.581915    1.964391   -0.697421
H      -0.273335    1.937448    1.044038
H       0.711187   -0.361773    0.864990
H      -0.933310   -0.355043    0.228379
H      -0.050319   -0.156858   -2.085111
H       3.196782   -1.187933   -2.782846
H       3.630061   -1.243069   -1.066669
H       2.248666   -3.466811   -1.691180
