16

O      -0.080204    1.446254    0.039705
C       0.003158    0.037748    0.025605
C       0.672013   -0.576627    1.279363
C       0.034858   -1.987420    1.416853
C       0.060905   -2.519661    2.777229
N       0.085376   -2.945841    3.851057
C      -1.374522   -1.789115    0.848062
O      -2.004801   -0.603337    1.317309
C      -1.382910   -0.575826    0.025489
H       0.810725    1.806109   -0.014101
H       0.515876   -0.314797   -0.885985
H       1.760576   -0.622475    1.209920
H       0.399974    0.035176    2.140644
H       0.558122   -2.703912    0.770431
H      -2.018845   -2.646466    0.676847
H      -2.051478   -0.429359   -0.817611
