12

C      -0.012866    1.477842   -0.017477
N      -0.006859    0.031835    0.079713
N      -0.048467   -0.735497   -1.042384
N      -0.035139   -2.016436   -0.733368
C       0.016821   -2.063574    0.614243
C       0.035494   -0.801189    1.145813
N       0.087732   -0.892333    2.501648
N       0.102456   -2.109338    2.825091
O       0.055248   -2.955398    1.590979
H       0.896407    1.891400    0.425859
H      -0.054459    1.726284   -1.077564
H      -0.886232    1.888658    0.495176
