18

C      -0.032929    1.573544    0.001227
C      -0.032332    0.043775   -0.031998
N       0.672219   -0.498723   -1.183360
C       0.132361   -1.056710   -2.321970
N       1.048770   -1.420379   -3.184858
C       2.254682   -1.087652   -2.601064
N       3.552712   -1.283858   -3.137442
C       2.028567   -0.521915   -1.375341
O       2.872738   -0.042518   -0.434818
H       0.989689    1.955217    0.054538
H      -0.510278    1.982323   -0.894118
H      -0.580214    1.930207    0.879157
H       0.432891   -0.353784    0.875808
H      -1.054343   -0.344248   -0.071610
H      -0.936031   -1.165994   -2.436276
H       3.655117   -0.799560   -4.025424
H       3.719834   -2.267650   -3.331865
H       3.759004   -0.181754   -0.798277
