14

C       0.187852   -1.190135    0.097845
C       0.046158    0.001795    0.059197
C      -0.150454    1.457706    0.005607
O      -0.749070    1.964937    1.172955
C       0.322517    2.208081    2.067985
C       1.423151    2.735110    1.118041
O       1.114454    2.120313   -0.126984
C       1.399538    4.202537    0.983018
N       1.393184    5.354697    0.902479
H       0.311603   -2.245261    0.126757
H      -0.783182    1.735950   -0.842452
H      -0.004061    2.929980    2.815817
H       0.658872    1.283021    2.553332
H       2.424143    2.429081    1.438313
