17

O       0.176484    1.263831    0.152992
C       0.021873   -0.125065   -0.048211
C      -1.456382   -0.533197   -0.028511
O      -1.963114   -0.146635    1.238490
C      -3.203687   -0.721793    1.583760
C      -3.565893   -0.260854    2.986710
O      -4.601425   -0.538088    3.527221
C      -2.206414    0.171293   -1.161063
O      -2.176677   -0.203611   -2.302189
H      -0.231776    1.468638    1.001768
H       0.442310   -0.360979   -1.029619
H       0.555711   -0.713744    0.712495
H      -1.536038   -1.620359   -0.179400
H      -4.012068   -0.431771    0.894842
H      -3.152402   -1.822950    1.577838
H      -2.777116    0.354874    3.472561
H      -2.763873    1.080800   -0.844329
