18

C       0.092050    1.534398    0.142695
C      -0.052224    0.041290    0.095730
C      -1.184799   -0.682474   -0.063974
C      -2.559065   -0.103455   -0.229878
C      -1.098207   -2.157200   -0.081479
N      -2.167557   -2.851164   -0.234579
N       0.167691   -2.762722    0.072375
C       1.191278   -2.005165    0.218584
N       1.155341   -0.643983    0.237701
H       0.757556    1.884955   -0.656179
H      -0.863453    2.041658    0.029123
H       0.531902    1.851867    1.096461
H      -2.996482   -0.449229   -1.171935
H      -3.219585   -0.484495    0.555548
H      -2.576708    0.987194   -0.209858
H      -1.912597   -3.840608   -0.220397
H       2.181344   -2.442800    0.339634
H       2.008434   -0.123777    0.360931
