14

C      -0.027227    1.537662    0.035411
C       0.005259    0.044750   -0.044474
C       0.174795   -0.670482   -1.192357
F       0.329977   -0.058529   -2.374607
C       0.185691   -2.083915   -1.124506
N       0.043595   -2.774512   -0.028379
C      -0.133111   -2.104294    1.176490
O      -0.274956   -2.635358    2.254790
N      -0.141982   -0.687616    1.093004
H       0.103742    1.970444   -0.956019
H      -0.982205    1.883011    0.446434
H       0.770265    1.908126    0.688826
H       0.322743   -2.635353   -2.055700
H      -0.271737   -0.219380    1.979830
