20

C      -0.057986    1.530283    0.018192
C      -0.047965    0.006110   -0.035113
O      -1.357068   -0.498015   -0.225371
C       1.081486   -0.575359   -0.973807
C       1.814611   -1.130771    0.274378
C       0.676069   -0.632313    1.190482
C       0.438358   -2.106341    1.550581
C       0.243553   -2.999902    0.399205
N       1.624803   -2.579186    0.705403
H       0.935986    1.929184    0.243216
H      -0.369576    1.949721   -0.947314
H      -0.754031    1.876747    0.788693
H      -1.756051   -0.019696   -0.960433
H       0.741453   -1.316668   -1.700063
H       1.650467    0.192386   -1.505789
H       2.855232   -0.840413    0.412896
H       0.852407    0.018949    2.046730
H       0.311350   -2.448872    2.573033
H       0.093998   -4.052709    0.622540
H      -0.275691   -2.654174   -0.485478
