13

O      -0.565807    0.866772    0.900365
C       0.143134    0.786475   -0.065469
C       1.438896    1.572382   -0.208319
O       2.362738    0.953490   -1.114461
C       2.387801    2.094379   -1.991183
C       1.378348    2.865773   -1.094728
C       0.105088    3.215020   -1.700295
N      -0.902119    3.484161   -2.199390
H      -0.086340    0.133438   -0.935138
H       1.864642    1.746492    0.785714
H       3.381361    2.549926   -2.051173
H       2.027831    1.854760   -2.996174
H       1.797507    3.740854   -0.596286
