19

C      -0.097015    1.572650   -0.017106
C       0.025428    0.064598    0.187524
N      -1.247698   -0.603525   -0.046859
C      -1.764529   -0.737635   -1.436552
C      -1.956549   -2.247491   -1.215108
C      -0.622580   -2.871839   -0.845017
C      -1.339941   -2.038346    0.176065
C      -3.099178   -3.003233   -1.598762
N      -4.030349   -3.609021   -1.925389
H       0.856316    2.067758    0.189663
H      -0.377160    1.810851   -1.048908
H      -0.861021    1.989804    0.644730
H       0.834252   -0.332174   -0.453693
H       0.313938   -0.149331    1.223664
H      -2.696293   -0.187001   -1.588527
H      -1.053375   -0.480683   -2.232681
H      -0.656505   -3.942774   -0.675518
H       0.277022   -2.513820   -1.337100
H      -1.667213   -2.436251    1.130631
