18

N      -0.153180    1.261451    0.065159
C       0.041620   -0.086227   -0.065323
O       1.109404   -0.626252   -0.231681
O      -1.143331   -0.735452    0.059610
C      -1.066146   -2.165722   -0.027813
C      -2.444214   -2.715619    0.316659
C      -2.466430   -4.223297    0.257779
C      -3.638709   -4.971260   -0.210276
O      -2.493434   -4.809853   -1.047928
H       0.612721    1.846121   -0.222013
H      -1.085448    1.625736   -0.034500
H      -0.769191   -2.457189   -1.040198
H      -0.298457   -2.530711    0.661744
H      -2.725256   -2.384525    1.323950
H      -3.184752   -2.312504   -0.381988
H      -1.789641   -4.729896    0.949076
H      -3.816869   -5.983123    0.150892
H      -4.528814   -4.427803   -0.525327
