22

C      -0.129093    1.583921   -0.000019
C       0.010017    0.058067   -0.006615
C      -1.382360   -0.596464   -0.052973
C       0.893403   -0.477338   -1.175417
C       1.639656   -1.646416   -0.545406
C       2.563738   -1.401382    0.591948
C       2.271671   -0.077838    1.279479
C       0.776045   -0.494568    1.206688
N       1.166450   -1.927469    0.835907
H       0.842954    2.085259    0.030180
H      -0.651032    1.927810   -0.899577
H      -0.709939    1.922974    0.865032
H      -1.917833   -0.306115   -0.963492
H      -1.304643   -1.687178   -0.033352
H      -1.989381   -0.286655    0.804970
H       0.284413   -0.803555   -2.023516
H       1.580609    0.290387   -1.547591
H       1.820817   -2.540034   -1.134471
H       3.438253   -2.022727    0.762717
H       2.636814   -0.070312    2.308638
H       2.590637    0.846080    0.786630
H       0.218047   -0.445083    2.143144
