19

C      -0.028578    1.450446   -0.157612
C       0.060702   -0.029927    0.108864
N       0.230196   -0.628174    1.214972
O      -0.069887   -0.714606   -1.053985
C      -0.013532   -2.119665   -1.013448
C      -0.941082   -3.138015   -0.323427
N       0.041856   -4.020827   -1.114228
C      -0.147455   -3.002456   -2.255214
C       1.132564   -3.062874   -0.600788
H       0.074354    2.021996    0.766094
H       0.755488    1.754105   -0.857918
H      -0.988679    1.690877   -0.624336
H       0.307156    0.045540    1.973697
H      -0.861472   -3.246852    0.757356
H      -1.972005   -3.216081   -0.677777
H      -1.124248   -3.068135   -2.740431
H       0.670066   -3.003166   -2.980162
H       2.037172   -3.070832   -1.214045
H       1.347348   -3.166815    0.461911
