20

C       3.020779   -1.494572    1.092216
N       1.889995   -1.001695    0.311738
C       0.545636   -1.349986    0.766111
C       1.038928    0.050251    0.860702
C       1.289231    0.721130    2.195353
O       0.281749    1.704400    2.405844
C      -0.058079    1.700350    3.789332
C       0.888173    0.652920    4.401372
O       1.215931   -0.165307    3.287590
H       2.840816   -1.539628    2.174880
H       3.270735   -2.499590    0.738064
H       3.888489   -0.851528    0.909220
H      -0.161226   -1.631464   -0.010156
H       0.447549   -1.892197    1.703495
H       0.712683    0.782346    0.124659
H       2.276184    1.222833    2.197821
H       0.087523    2.697421    4.220026
H      -1.111697    1.417826    3.901027
H       1.790665    1.124499    4.817649
H       0.426047    0.027490    5.167455
