18

C      -0.304192    1.641368    0.033251
C       0.050852    0.157428    0.026485
C       1.226861   -0.290918   -0.900962
C       1.846748   -1.086405    0.279729
C       0.854844   -0.390056    1.250459
C      -1.197883   -0.668763   -0.227448
F      -1.761230   -0.366309   -1.410685
F      -0.940779   -1.990891   -0.244349
F      -2.129354   -0.465107    0.721145
H       0.593757    2.237668    0.216895
H      -0.728971    1.949340   -0.926843
H      -1.032356    1.868945    0.817496
H       0.954289   -0.855247   -1.794941
H       1.832538    0.566090   -1.205577
H       1.666270   -2.159383    0.199096
H       2.909226   -0.924291    0.470909
H       1.310067    0.426807    1.815792
H       0.307161   -1.027754    1.947125
