20

C       0.043608    1.489461   -0.122049
C      -0.025376   -0.006469    0.048878
C      -1.297299   -0.737976   -0.386123
C      -1.225147   -2.129278    0.281259
C      -0.326696   -1.921008    1.501783
C      -0.715464   -2.279069    2.871971
O       0.219595   -3.078185    2.140218
C       0.562100   -0.748602    1.205035
N       1.241260   -0.735199   -0.103996
H       0.999365    1.873265    0.242292
H      -0.045935    1.762974   -1.179869
H      -0.767180    1.986188    0.422285
H      -2.166749   -0.180294   -0.018895
H      -1.392036   -0.793825   -1.476520
H      -2.206939   -2.525190    0.549418
H      -0.760880   -2.868312   -0.380668
H      -0.300284   -1.731997    3.718286
H      -1.686559   -2.739699    3.052072
H       1.099615   -0.270548    2.018576
H       1.124858   -1.622386   -0.588420
