15

C      -0.006046    1.477141    0.010235
N      -0.074390    0.027264    0.003120
C      -1.240069   -0.645376    0.009990
N      -2.371025   -0.026638    0.023360
C      -3.510474   -0.791325    0.029853
N      -4.728141   -0.241973    0.042445
N      -5.494236   -1.326881    0.044303
N      -4.841517   -2.478208    0.034736
N      -3.575809   -2.161431    0.026214
H       1.041921    1.781154    0.002194
H      -0.511644    1.894000   -0.866391
H      -0.495350    1.884607    0.900424
H       0.777966   -0.503424   -0.007317
H      -1.143046   -1.734123    0.003425
H      -6.501380   -1.282123    0.052693
