18

C       0.158973    1.522242   -0.251730
O       1.515624    1.461684    0.240306
C       1.361823    0.107563    0.670430
C       2.505990   -0.669442    1.355892
C       1.755003   -1.956538    0.930414
C       1.672716   -1.007703   -0.294470
C       3.188498   -0.688597   -0.103406
N       0.391133   -0.905433   -1.043565
C      -0.110561    0.044995    0.029755
H      -0.443441    2.212506    0.352999
H       0.108425    1.822186   -1.305167
H       3.024731   -0.486758    2.298821
H       2.363672   -2.855175    0.810880
H       0.815619   -2.166553    1.446617
H       3.530614    0.275342   -0.478340
H       3.916100   -1.487580   -0.274374
H       0.465868   -0.442239   -1.945934
H      -1.058903   -0.250089    0.476827
