19

C       0.031471    1.616543   -0.140713
C       0.043882    0.083312   -0.013885
C       0.592013   -0.539163   -1.308096
O       0.851973   -1.927051   -1.182850
C       1.886221   -2.191332   -0.263500
C       1.732610   -1.431527    1.017504
C       0.866523   -0.416343    1.157873
C       0.694129    0.139672    2.514261
O      -0.139385    0.952809    2.845270
H       1.049847    2.008846   -0.240449
H      -0.530698    1.915141   -1.032078
H      -0.428698    2.075005    0.733839
H      -0.990722   -0.255994    0.128926
H      -0.131628   -0.435323   -2.121076
H       1.512246   -0.007544   -1.605923
H       1.862138   -3.269663   -0.064680
H       2.878221   -1.975294   -0.705364
H       2.337685   -1.755390    1.862787
H       1.405429   -0.283083    3.260979
