21

C      -0.125379    1.392412   -0.094112
O       0.223055    0.045226    0.133672
C       0.701264   -0.612513   -1.016024
C       1.297387   -1.987395   -0.800560
C       0.226985   -3.060449   -0.699273
C      -1.187547   -2.669361   -0.274439
C      -1.627009   -1.638396   -1.349468
C      -0.318831   -1.230041   -2.042086
C       0.573368   -2.500648   -2.046850
H       0.732977    1.974569   -0.465613
H      -0.946388    1.494902   -0.819597
H      -0.448633    1.813370    0.861180
H       1.418553    0.033714   -1.544655
H       2.313751   -2.181726   -0.477560
H       0.608325   -4.041413   -0.436316
H      -1.845510   -3.544176   -0.261380
H      -1.197327   -2.230672    0.726620
H      -2.299674   -2.101131   -2.080214
H      -2.149601   -0.782506   -0.913442
H      -0.446627   -0.682795   -2.976328
H       0.962944   -3.041968   -2.897599
