17

O      -0.045787    0.008653   -0.025182
C       0.042570    1.209850    0.027020
C       1.332552    1.968372    0.002828
C       2.630546    1.147424   -0.094630
O       3.609818    2.127093   -0.509094
C       2.902575    3.345847   -0.618711
C       1.545800    2.935402   -1.197651
O       2.571756    3.848239    0.666586
C       1.530678    2.984280    1.156829
H      -0.866315    1.851487    0.090490
H       2.926088    0.711458    0.864877
H       2.558276    0.347835   -0.838817
H       3.520966    4.076546   -1.136503
H       1.616826    2.423840   -2.158908
H       0.826133    3.754766   -1.242207
H       0.624772    3.570615    1.360966
H       1.854221    2.496608    2.082612
