19

C      -0.035627    1.501943   -0.442612
N      -0.060011    0.050847   -0.421550
C      -1.110799   -0.543310   -0.063466
N      -1.267711   -1.925609   -0.002137
C      -2.475743   -2.270469    0.684675
C      -2.717347   -1.706437    2.086195
C      -1.613170   -1.246651    3.009548
C      -3.154790   -0.942255    0.858148
O      -2.289949    0.048594    0.340329
H       0.943002    1.849788   -0.094617
H      -0.156637    1.870438   -1.469841
H      -0.812775    1.969493    0.175058
H      -0.420107   -2.455345    0.128231
H      -2.990002   -3.162545    0.345435
H      -3.556405   -2.186831    2.586108
H      -0.777916   -0.799316    2.466674
H      -1.985883   -0.497320    3.715327
H      -1.221537   -2.088497    3.590011
H      -4.194804   -0.739469    0.636386
