16

C      -0.346229    1.392123    0.144273
C       0.169140   -0.015602   -0.156887
O       1.133535   -0.021009   -1.202878
C       0.879144   -0.607989    1.039319
N       0.036677   -1.116157    2.116208
C       0.855817   -2.073192    1.340714
C       0.138842   -3.012510    0.511667
N      -0.414147   -3.774677   -0.158922
H       0.483299    2.059030    0.401055
H      -0.859665    1.807965   -0.729452
H      -1.057570    1.370140    0.975076
H      -0.682095   -0.666328   -0.404509
H       0.711395    0.313884   -1.999918
H       1.806777   -0.099074    1.298152
H       0.461917   -0.964058    3.026595
H       1.741866   -2.493522    1.808236
