17

C      -0.132777   -1.279254   -0.143174
C      -0.061526   -0.084369   -0.024549
C       0.018727    1.361596    0.089365
C      -0.239088    2.048937    1.439059
C       1.013547    2.003231    2.292695
O       1.981177    1.007909    2.059277
C       2.485627    1.220062    0.733113
C       1.425775    2.081857    0.054527
C       0.936094    3.008807    1.200991
H      -0.195702   -2.335687   -0.229010
H      -0.620961    1.822688   -0.670198
H      -1.217523    2.253028    1.858905
H       0.927684    2.284866    3.335267
H       3.456411    1.737013    0.771973
H       2.613698    0.244395    0.255639
H       1.720627    2.514324   -0.900064
H       1.015856    4.084472    1.275746
