25

C      -0.961354    1.600617    0.408845
C      -0.324570    0.224747    0.173635
C      -0.413705   -0.655836    1.408146
C      -1.576201   -1.601237    1.618051
C      -0.182391   -2.152466    1.463616
C       0.213934   -3.063338    0.297358
C       1.731916   -3.005034    0.074511
C      -0.232914   -4.497624    0.604379
O      -0.468500   -2.716538   -0.914902
H      -0.462861    2.131609    1.227432
H      -0.894848    2.228491   -0.485233
H      -2.018862    1.500865    0.674338
H      -0.828272   -0.260029   -0.667480
H       0.726461    0.362590   -0.117299
H      -0.076576   -0.138209    2.305205
H      -2.064756   -1.649573    2.585310
H      -2.236213   -1.740339    0.767549
H       0.287394   -2.481235    2.388828
H       2.275721   -3.312977    0.972999
H       2.022758   -3.665924   -0.747918
H       2.050352   -1.984427   -0.167725
H      -1.320590   -4.536569    0.706587
H       0.061185   -5.166960   -0.209173
H       0.215422   -4.858339    1.534854
H       0.018880   -2.001980   -1.335210
