19

C      -0.078395    1.554275    0.064472
C       1.459436    1.329996   -0.045629
C       1.702500    0.520528    1.241181
C       0.687638   -0.357167    1.282279
C      -0.078128   -0.026417    0.006933
C      -1.142269   -0.758281   -0.775062
C      -0.815333   -0.284382   -2.228275
O       0.501538    0.311006   -2.238011
C       1.107986    0.109992   -0.985263
H      -0.449325    2.008759    0.985198
H      -0.517774    2.026663   -0.816024
H       2.164989    2.116820   -0.309485
H       2.526271    0.648675    1.929385
H       0.466284   -1.129870    2.004769
H      -1.022414   -1.843077   -0.682567
H      -2.168674   -0.506943   -0.494104
H      -0.839727   -1.116696   -2.941668
H      -1.525940    0.475474   -2.572187
H       1.855027   -0.693224   -1.019838
