12

O      -0.076473    0.003633    0.003382
N      -0.012297    1.227503    0.006891
O       1.002754    1.893446    0.002535
C      -1.321533    1.946839    0.017602
N      -1.267939    3.261719    0.020466
C      -2.444930    3.885172    0.030033
C      -3.645645    3.172368    0.036547
N      -3.680694    1.838994    0.033536
C      -2.503238    1.211181    0.023888
H      -2.431984    4.971062    0.032574
H      -4.600038    3.691314    0.044380
H      -2.491273    0.128715    0.021124
