18

O       0.208631    0.866999    0.802860
C      -0.083522    0.291610   -0.474711
C      -1.444914   -0.360678   -0.434290
O      -2.431145    0.547167   -0.014846
C      -1.992396   -1.344047   -1.413245
C      -0.931193   -2.322135   -1.930120
C      -0.636784   -2.767780   -0.458419
C      -1.696695   -1.779569    0.042060
H       0.317651    0.138832    1.424889
H      -0.096600    1.132100   -1.175721
H       0.703548   -0.403614   -0.788500
H      -2.029688    1.031467    0.719208
H      -2.951478   -1.143473   -1.875481
H      -1.367649   -3.131266   -2.519122
H      -0.101428   -1.895056   -2.502393
H      -0.918527   -3.808608   -0.284467
H       0.385667   -2.630026   -0.088816
H      -2.404841   -1.948898    0.844111
