21

C      -1.554337   -0.321597    0.121180
C      -0.070051    0.045986    0.035792
C       0.743126   -0.413819    1.262135
C       0.865566   -1.946835    1.401352
C       2.371327   -2.239601    1.497793
O       2.871273   -3.331223    1.650682
C       3.063994   -0.945032    1.370948
C       2.189867    0.065955    1.243865
C       2.528684    1.516957    1.122015
H      -2.022578    0.136034    0.999848
H      -2.095820    0.025908   -0.763843
H      -1.700314   -1.403895    0.195030
H       0.373721   -0.393248   -0.867429
H       0.020103    1.133163   -0.073134
H       0.257347    0.013079    2.152618
H       0.355368   -2.350055    2.280369
H       0.461426   -2.477855    0.532834
H       4.143604   -0.859283    1.399492
H       3.600306    1.691754    1.241879
H       2.226676    1.914071    0.145660
H       1.992818    2.106977    1.875943
