19

C       0.016968    1.512559    0.023545
C       0.019438    0.003931    0.009759
C       0.475259   -0.723824   -1.277302
C      -0.718487   -1.676468   -1.084506
C      -0.500045   -2.775785   -0.027949
C      -0.767345   -1.696121    1.037602
C       0.415853   -0.747722    1.302740
N      -1.332148   -0.744665   -0.028297
H       1.043637    1.898721    0.049809
H      -0.474229    1.911428   -0.869925
H      -0.513500    1.895330    0.901466
H       0.347163   -0.088458   -2.158497
H       1.481248   -1.154468   -1.299120
H      -1.314806   -1.926733   -1.964485
H      -1.301081   -3.519264   -0.053267
H       0.463377   -3.295128   -0.010580
H      -1.403422   -1.962378    1.884422
H       1.419955   -1.179125    1.362869
H       0.247054   -0.128734    2.188720
