21

C      -0.020085    1.475312   -0.161171
C       0.005852   -0.047612   -0.051764
O       0.656617   -0.535960   -1.219064
C       0.987609   -1.923265   -1.162843
C       1.454434   -2.282000   -2.568410
O       0.455354   -2.009888   -3.528222
C       2.029170   -2.176847   -0.071860
C       1.632772   -1.463076    1.193928
C       0.694671   -0.519639    1.204033
H       0.998517    1.873270   -0.155437
H      -0.508458    1.777814   -1.091507
H      -0.571480    1.909819    0.677908
H      -1.037983   -0.414915   -0.044058
H       0.074805   -2.499123   -0.937275
H       2.383722   -1.728452   -2.783594
H       1.679866   -3.352270   -2.624246
H       0.150140   -1.116156   -3.329299
H       2.116150   -3.255146    0.112955
H       3.020546   -1.840586   -0.407851
H       2.129761   -1.754286    2.115545
H       0.389566   -0.040134    2.130486
