21

C      -0.360916    1.258414    0.010162
C       0.150242   -0.181115   -0.145087
C       1.077075   -0.311616   -1.362650
C       0.852302   -0.642095    1.121993
C       0.053771   -1.102157    2.327078
C       0.858778   -2.088168    1.543874
O       0.107378   -3.024394    0.790105
C       0.801161   -3.920042    0.059891
O       0.270801   -4.733743   -0.634462
H       0.469789    1.954683    0.176217
H      -0.891480    1.584118   -0.890375
H      -1.045986    1.348570    0.858708
H      -0.714386   -0.836713   -0.304168
H       1.969222    0.315319   -1.245338
H       1.411040   -1.343767   -1.507544
H       0.567582    0.005427   -2.278085
H       1.772805   -0.103083    1.340699
H       0.380353   -0.840023    3.326943
H      -1.022239   -1.167171    2.202734
H       1.755641   -2.513963    1.985408
H       1.896653   -3.822961    0.187847
