20

O      -0.519316    0.871360   -1.172493
C      -0.192967   -0.131930   -0.221971
C      -1.368827   -1.095951   -0.168221
C      -1.180921   -2.218764    0.835940
O      -0.187120   -2.305025    1.522302
C      -2.298762   -3.259107    0.935042
C      -2.330770   -4.180137   -0.272234
C      -3.578984   -4.881060   -0.658079
N      -3.037926   -3.803349   -1.508411
H       0.222055    1.481037   -1.228081
H       0.718254   -0.679203   -0.501778
H      -0.018072    0.292898    0.776589
H      -2.287547   -0.547073    0.080713
H      -1.546058   -1.529050   -1.161104
H      -2.116397   -3.840214    1.844239
H      -3.270145   -2.756785    1.032348
H      -1.387482   -4.688231   -0.464612
H      -3.535711   -5.875221   -1.093120
H      -4.473005   -4.681809   -0.072300
H      -3.574801   -2.952400   -1.355490
