17

C      -0.048719    1.539112   -0.059950
C       0.005622    0.043238    0.049943
O       0.826783   -0.600482   -0.951784
C       1.584317   -1.337572    0.033114
C       0.721389   -0.816601    1.187618
O       1.421345   -0.346606    2.286268
C      -0.588347   -1.574164    1.369862
O      -1.580598   -0.584588    1.703462
C      -1.255648   -0.782244    0.320215
H       0.946995    1.972605    0.071772
H      -0.422210    1.835153   -1.046367
H      -0.716157    1.949097    0.703434
H       1.580740   -2.417511   -0.152494
H       2.617767   -0.978125    0.097767
H       0.775018   -0.017377    2.922517
H      -0.768168   -2.589117    1.707145
H      -2.051084   -1.073692   -0.355193
