19

N      -0.059783    1.480488    0.058777
C       0.016540    0.013487    0.008820
C      -1.418134   -0.559398    0.048578
C      -1.434382   -2.091651    0.103929
C      -0.450973   -2.707380   -0.855150
C       0.517713   -2.019924   -1.457354
C       0.750361   -0.546384   -1.241242
C       0.744214   -0.417804    1.221217
N       1.323393   -0.761261    2.160183
H       0.872877    1.880542   -0.003133
H      -0.572582    1.807550   -0.756059
H      -1.952345   -0.123092    0.896067
H      -1.919482   -0.218148   -0.866212
H      -1.211674   -2.433776    1.124151
H      -2.446656   -2.453297   -0.113526
H      -0.547901   -3.774005   -1.040422
H       1.195935   -2.522000   -2.142251
H       0.397673    0.027089   -2.110873
H       1.823759   -0.336876   -1.158752
