16

O       0.155282   -0.135325   -0.064782
C       0.140939    1.062980   -0.198907
C       1.355414    1.923270   -0.119765
N       2.755615    1.389441   -0.083514
C       2.899912    2.886599    0.037921
C       1.826372    3.078590   -1.088274
C       1.026809    4.323734   -0.750517
C       0.913746    4.297853    0.580258
C       1.653395    3.035132    0.984112
H      -0.805913    1.622240   -0.367519
H       2.927841    0.943951    0.821956
H       3.874499    3.374267    0.124139
H       2.080779    2.818135   -2.113777
H       0.652910    5.049488   -1.458645
H       0.423259    4.996611    1.243271
H       1.725288    2.724664    2.027433
