21

C      -0.021579    1.385889   -0.690641
C      -0.040935    0.000859   -0.076965
C       1.194666   -0.800469   -0.067842
O       0.752108   -0.123264    1.112734
C      -1.383480   -0.695445   -0.033432
C      -1.977998   -0.959063   -1.416768
O      -3.223779   -1.634131   -1.392633
C      -1.631942   -1.685923    1.074672
C      -2.321006   -0.341413    1.092805
H       0.967133    1.835625   -0.573275
H      -0.261499    1.354221   -1.758268
H      -0.756355    2.032099   -0.199696
H       1.129720   -1.886919   -0.029366
H       2.104428   -0.403614   -0.516631
H      -2.176555   -0.007347   -1.921504
H      -1.243524   -1.503875   -2.032047
H      -3.059499   -2.554272   -1.166328
H      -2.241600   -2.558788    0.866594
H      -0.828932   -1.845300    1.783692
H      -1.984384    0.382428    1.826956
H      -3.380415   -0.320292    0.864931
