21

C      -0.136898    1.614092   -0.087981
C       0.005996    0.090293   -0.027087
O       0.711545   -0.427551   -1.162303
C       2.100725   -0.136278   -1.151771
C       2.745621   -0.623593    0.140264
O       2.064071   -0.074228    1.259508
C       0.679563   -0.435321    1.249680
C       0.107524    0.071728    2.567797
O       0.771185   -0.521913    3.665684
H       0.797347    2.121871    0.164659
H      -0.439197    1.911157   -1.095779
H      -0.904351    1.956454    0.612467
H      -0.987866   -0.365189   -0.103212
H       2.529775   -0.650437   -2.017531
H       2.280802    0.942472   -1.271041
H       2.711774   -1.723873    0.183494
H       3.788682   -0.299641    0.208626
H       0.606439   -1.535119    1.240057
H       0.179881    1.169099    2.604102
H      -0.950938   -0.199960    2.642923
H       1.713184   -0.417543    3.484878
