14

O      -0.052364   -0.038608   -1.372113
C      -0.019903    0.947254   -0.708784
O       1.136101    1.630814   -0.490402
C       1.067468    2.809324    0.315020
C       2.380430    2.885573    1.122228
C       2.388719    4.003506    2.052769
C       2.365142    4.929617    2.816508
C       0.870797    3.989896   -0.542546
N       0.707317    4.907099   -1.224547
H      -0.890661    1.402355   -0.200348
H       0.221047    2.747017    1.010309
H       2.482932    1.932995    1.653355
H       3.217241    2.952465    0.419031
H       2.358785    5.752144    3.488959
