21

O      -0.330582    1.589355    0.216446
C      -0.097691    0.198213    0.389639
C      -1.320498   -0.550975   -0.125755
C      -1.586848   -0.202641   -1.611559
O      -2.289171   -1.223063   -2.320323
C      -1.990788   -2.538785   -1.879128
C      -2.504172   -2.739866   -0.429048
C      -1.165421   -2.078690    0.005050
C      -0.551167   -2.661163   -1.305464
H       0.463311    2.065226    0.476285
H       0.797754   -0.126777   -0.166301
H       0.065525   -0.050176    1.450652
H      -2.178260   -0.236924    0.482774
H      -2.180851    0.707967   -1.706128
H      -0.624051   -0.009416   -2.108244
H      -2.321007   -3.214924   -2.670252
H      -3.438178   -2.236639   -0.165848
H      -2.552807   -3.796418   -0.151704
H      -0.726436   -2.365331    0.965016
H      -0.271199   -3.710464   -1.185466
H       0.260425   -2.128624   -1.806942
