15

O      -0.179700   -0.022888   -0.146762
C       0.013836    1.161228   -0.052286
C       1.362301    1.832473   -0.198488
C       1.355091    2.903121   -1.291611
C       0.607156    4.232908   -1.025069
O       1.796431    5.004241   -1.278898
C       2.598994    3.813910   -1.406318
H      -0.830558    1.861656    0.150502
H       1.609814    2.305090    0.763424
H       2.111015    1.061038   -0.403118
H       1.079480    2.456531   -2.250516
H      -0.205599    4.487932   -1.714600
H       0.249411    4.360976    0.006689
H       3.316707    3.711287   -0.580427
H       3.143806    3.782223   -2.356721
