17

O      -0.009851    0.045513    0.273344
C      -0.048576    1.227293    0.058431
C      -1.318410    2.072358   -0.139896
C      -0.833186    3.389209   -0.714347
C       0.078611    4.257249    0.127230
O       0.385238    3.820287    1.430396
C       1.398994    2.816453    1.325856
C       1.171473    2.158900   -0.056836
C       0.688308    3.347334   -0.893618
H      -2.001836    1.549989   -0.815080
H      -1.826271    2.176064    0.825898
H      -1.443567    3.892331   -1.455770
H       0.050382    5.335788    0.016159
H       2.399362    3.271244    1.369434
H       1.284763    2.125988    2.166348
H       2.049928    1.630635   -0.426617
H       1.204734    3.676720   -1.785041
