16

C      -0.022235    1.484893   -0.022236
C       1.269688    1.820686   -0.033659
C       1.990127    0.474352    0.018320
C       1.158875   -0.442986   -0.972269
C       1.533393   -1.865175   -0.558187
C       1.531772   -1.813377    0.775705
C       1.158619   -0.362816    1.077325
C       0.004998   -0.041524    0.038246
H      -0.902358    2.112195   -0.047658
H       1.732442    2.797023   -0.071016
H       3.080778    0.439397    0.020003
H       1.081564   -0.185632   -2.029877
H       1.742892   -2.693921   -1.220048
H       1.739639   -2.588271    1.500344
H       1.080700   -0.023728    2.111584
H      -0.930421   -0.603010    0.059913
