18

C       0.043378    1.536319    0.065706
C       0.011348    0.017089    0.004163
C       0.684236   -0.545650   -1.258451
C       0.957216   -2.034357   -1.135056
O       2.130277   -2.401318   -0.395631
C       0.859724   -2.683306    0.182246
C       0.471945   -1.847663    1.382800
O       0.659974   -0.465390    1.175925
H       1.078319    1.889777    0.102977
H      -0.440142    1.968539   -0.815719
H      -0.473644    1.894738    0.959640
H      -1.038853   -0.326622    0.018258
H       0.042453   -0.357481   -2.126472
H       1.634567   -0.028852   -1.436235
H       0.800246   -2.637350   -2.029056
H       0.602170   -3.741737    0.248014
H      -0.581744   -2.069715    1.631691
H       1.086079   -2.117020    2.248670
