17

O       0.102146    1.172231    0.778416
C       0.086287   -0.057385    0.110585
C       0.955702   -0.152166   -1.099186
C       1.317461   -0.924781    0.156575
C      -1.275984   -0.715804    0.117225
C      -2.205236   -0.535356   -1.015215
O      -1.479756   -1.755007   -0.849211
C      -1.802122   -0.960612    1.442795
C      -2.183089   -1.123159    2.571746
H      -0.082898    0.997621    1.709581
H       0.590144   -0.718434   -1.947290
H       1.539517    0.729732   -1.334761
H       2.147259   -0.558831    0.750266
H       1.189630   -2.001369    0.141961
H      -3.277083   -0.605965   -0.844327
H      -1.888957    0.089134   -1.848352
H      -2.542387   -1.282852    3.558665
