18

C      -0.057531    1.530964    0.027493
C      -0.039301    0.032359   -0.001983
C       0.389189   -0.773755   -1.247072
C      -0.602027   -1.800670   -0.736339
C      -0.553693   -1.815035    0.754368
C       0.472518   -0.791152    1.224085
C       1.877770   -1.128468    1.351301
C       3.045966   -1.401736    1.439269
N      -1.382033   -0.781156    0.050289
H       0.966021    1.922702    0.015238
H      -0.588785    1.931272   -0.841611
H      -0.555300    1.899369    0.930100
H       0.023672   -0.297347   -2.160848
H       1.443831   -1.042222   -1.354202
H      -1.109242   -2.578906   -1.294991
H      -1.011847   -2.597658    1.347817
H       0.105065   -0.314407    2.139776
H       4.075486   -1.647969    1.523943
