17

C      -0.106964    1.446931   -0.065587
C      -0.026052   -0.043527    0.150139
O       0.855584   -0.630269    0.720897
O      -1.103160   -0.665415   -0.396279
C      -1.098423   -2.084726   -0.311720
C      -1.552750   -2.802628    0.983862
C      -2.994586   -2.279955    0.769215
C      -2.442150   -2.790101   -0.584182
O      -1.873435   -3.963004    0.118941
H       0.741838    1.930074    0.416430
H      -0.102874    1.668762   -1.136746
H      -1.043560    1.836818    0.342530
H      -0.221620   -2.516818   -0.792363
H      -0.995247   -2.990328    1.899232
H      -3.775475   -2.902078    1.206902
H      -3.178433   -1.210147    0.877445
H      -2.952401   -2.965061   -1.530761
