17

O       0.561018    0.834430    0.771326
C       0.187268   -0.284235    0.029843
C      -1.283648   -0.854999    0.102523
C      -2.311442    0.203912    0.518793
C      -3.703587   -0.384120    0.530956
O      -4.584276   -0.082270   -0.232486
C      -1.235871   -1.111096   -1.441467
C      -0.070042   -0.113396   -1.469552
O       0.306585    0.726507   -2.237203
H       0.602111    1.582810    0.162428
H       0.892774   -1.106559    0.212600
H      -1.377634   -1.751611    0.719112
H      -2.059917    0.560773    1.525339
H      -2.299760    1.059620   -0.163758
H      -3.864210   -1.167438    1.308918
H      -0.923759   -2.127111   -1.698373
H      -2.114411   -0.841998   -2.030990
