23

C       0.203657    1.577641   -0.088555
C       0.041774    0.061262    0.049389
C      -1.412881   -0.448547    0.057159
O      -1.991653    0.035529   -1.173117
C      -1.418311   -1.991175    0.066114
C      -2.809948   -2.559238    0.356240
C      -3.296867   -2.108099    1.739130
C      -3.042250   -0.641196    1.964338
C      -2.208600    0.093043    1.224949
H       1.259981    1.838461   -0.206037
H      -0.340596    1.942090   -0.962575
H      -0.165639    2.114671    0.790875
H       0.547080   -0.429741   -0.791689
H       0.535493   -0.292238    0.961985
H      -2.947918    0.006849   -1.072290
H      -1.049196   -2.335297   -0.905153
H      -0.715387   -2.348437    0.830259
H      -3.511395   -2.205319   -0.410909
H      -2.803939   -3.651873    0.288884
H      -4.365344   -2.322834    1.864996
H      -2.788895   -2.688266    2.524976
H      -3.578241   -0.170646    2.786407
H      -2.100517    1.154154    1.431723
