18

C      -0.013541    1.459592    0.099297
C      -0.035168   -0.052028   -0.044668
O      -1.379425   -0.488321    0.031494
C      -1.519019   -1.868150   -0.095480
C      -2.997904   -2.253819   -0.077852
O      -3.886969   -1.458833   -0.213392
C      -3.239819   -3.749277    0.125456
O      -4.578983   -4.051515   -0.160212
H       1.013506    1.832276    0.042668
H      -0.599893    1.927259   -0.696198
H      -0.440959    1.758595    1.060282
H       0.407606   -0.358299   -1.007844
H       0.564779   -0.527462    0.750257
H      -1.091399   -2.238399   -1.047472
H      -0.988437   -2.414666    0.707015
H      -2.529198   -4.308739   -0.508562
H      -2.966219   -3.976308    1.171661
H      -4.724803   -4.980571    0.039849
