23

C      -0.066469    1.564538    0.011034
C       0.011155    0.035403    0.002118
C       0.701651   -0.491466   -1.266017
C       0.801384   -2.022993   -1.284166
C       1.514251   -2.563283   -0.026074
C       0.825502   -2.036550    1.251045
C       0.725598   -0.504927    1.251180
C       1.501685   -4.075050   -0.034095
O       2.475013   -4.783703   -0.047457
H       0.936052    2.008758    0.003869
H      -0.602111    1.941096   -0.866932
H      -0.585268    1.931632    0.903010
H      -1.017107   -0.358182    0.009796
H       0.164327   -0.146486   -2.157335
H       1.711710   -0.061731   -1.327096
H      -0.208946   -2.453550   -1.335716
H       1.329995   -2.357901   -2.183524
H       2.564569   -2.249141   -0.034402
H      -0.183710   -2.467733    1.317193
H       1.371080   -2.380999    2.136562
H       1.736680   -0.075764    1.297624
H       0.205364   -0.169552    2.156197
H       0.474360   -4.516143   -0.026457
