21

C       0.254018    1.463385    0.256317
C      -0.172726    0.041482   -0.125438
C       0.583744   -0.497002   -1.324542
O       0.351039    0.203667   -2.525646
C       1.963750   -1.110907   -1.139052
C       0.758059   -1.971288   -1.499242
O       0.207178   -2.783766   -0.502573
C       0.676194   -2.604942   -2.865346
O       1.327795   -3.873753   -2.746669
H       1.319350    1.504431    0.508920
H       0.072702    2.167780   -0.563323
H      -0.309755    1.822764    1.122055
H      -0.027765   -0.639792    0.716747
H      -1.243494    0.027215   -0.362019
H       0.849299    1.026883   -2.484546
H       2.706926   -0.930915   -1.908674
H       2.345148   -1.200758   -0.127841
H       0.583379   -3.659983   -0.659404
H      -0.379909   -2.736177   -3.140750
H       1.153829   -1.970904   -3.619529
H       1.053855   -4.423995   -3.485304
