21

C       0.098019    1.494819   -0.040124
N       1.284365    0.616128    0.023117
C      -0.070182    0.022783    0.004621
C      -0.466099   -0.692569    1.282959
C       0.019238   -2.148726    1.230314
C      -0.643020   -2.945931    0.090498
C      -0.755505   -2.158386   -1.210590
N      -1.871034   -1.193361   -1.283969
C      -0.487514   -0.690676   -1.246943
H      -0.077776    2.087491    0.853992
H      -0.120632    2.011811   -0.971846
H       1.710474    0.549340   -0.899382
H      -0.016466   -0.169634    2.131707
H      -1.555295   -0.656549    1.397601
H       1.106770   -2.137352    1.087211
H      -0.167548   -2.650393    2.185467
H      -0.073886   -3.864382   -0.090804
H      -1.652591   -3.253738    0.386410
H      -0.533388   -2.713484   -2.119525
H      -2.237336   -1.140590   -2.230389
H      -0.077759   -0.271648   -2.166496
