17

C      -0.051371    1.383941    0.069078
N      -0.015224   -0.068984    0.029936
C       0.552537   -0.628047   -0.960370
N       1.177205   -0.063746   -2.069879
C       1.676010   -1.049505   -2.931317
O       2.262418   -0.842044   -3.967043
C       1.319595   -2.340919   -2.282138
C       0.665439   -2.104547   -1.134333
C       0.105689   -3.054261   -0.132886
H       0.958191    1.820850    0.084453
H      -0.584002    1.806531   -0.795845
H      -0.570200    1.710337    0.972806
H       1.275640    0.918891   -2.258923
H       1.578575   -3.293092   -2.722180
H       0.282633   -4.090961   -0.426841
H       0.551706   -2.880325    0.851723
H      -0.970849   -2.894963   -0.013175
