20

C      -0.039336    1.401379    0.123467
N      -0.036769   -0.041881    0.114003
C      -1.205132   -0.832741   -0.190935
C      -0.632274   -2.272319   -0.126857
C      -0.877169   -2.919961    1.236843
C      -1.098628   -3.155391   -1.276767
O       0.797511   -2.070005   -0.270703
C       1.121906   -0.760112   -0.069231
O       2.251494   -0.348142   -0.055582
H       0.989987    1.733409    0.266719
H      -0.418205    1.812603   -0.823006
H      -0.661300    1.785533    0.939628
H      -2.005385   -0.680250    0.542244
H      -1.609610   -0.594229   -1.187242
H      -1.941989   -3.132060    1.376962
H      -0.321565   -3.858139    1.313794
H      -0.546959   -2.256846    2.041721
H      -0.840856   -2.702652   -2.237879
H      -0.625630   -4.139585   -1.221165
H      -2.184106   -3.292451   -1.235917
