21

C       0.119679    1.506428    0.022724
C      -0.039635   -0.023116   -0.008717
C      -1.532633   -0.401418    0.047778
C       0.610963   -0.579001   -1.305959
C       0.867263   -2.062979   -1.276958
C       1.165176   -2.705993   -0.146693
C       1.223667   -1.974704    1.141817
O       2.049558   -0.781839    1.187509
C       0.634817   -0.626481    1.215040
H       1.177180    1.785743    0.059552
H      -0.323818    1.963382   -0.868820
H      -0.375744    1.938270    0.899392
H      -2.082922    0.079145   -0.767967
H      -1.671507   -1.483192   -0.038121
H      -1.986996   -0.076105    0.990229
H      -0.023430   -0.318558   -2.160956
H       1.566003   -0.062622   -1.466174
H       0.837112   -2.601804   -2.220060
H       1.365568   -3.772720   -0.136695
H       1.284896   -2.571143    2.049884
H       0.237371   -0.285255    2.173861
