17

C      -0.038198   -3.832852   -0.107171
C      -0.017740   -2.625719   -0.065807
C       0.005029   -1.266683   -0.019495
C       0.030467   -0.055804    0.026758
C       0.028523    1.387833    0.050771
C       0.080087    2.154520    1.423901
C       1.569224    1.720162    1.547787
C       1.388643    2.178772    0.071775
C       0.580237    3.387855    0.620580
H      -0.055904   -4.893586   -0.143259
H      -0.708895    1.783965   -0.655779
H      -0.689226    2.127188    2.196001
H       2.204166    2.352023    2.173602
H       1.762821    0.659637    1.716123
H       2.135379    2.179537   -0.722651
H      -0.132950    3.859249   -0.061170
H       1.148868    4.130779    1.184213
