20

C       0.016103    1.469504   -0.011256
C      -0.032915   -0.038374    0.094163
C      -1.420332   -0.683234   -0.031037
C      -1.255018   -2.095874    0.602293
C       0.243979   -2.166284    0.909465
C       1.152548   -2.050159   -0.320185
C       1.918804   -0.913056    0.236173
C       0.745017   -0.724798    1.248893
N       0.959587   -0.662497   -0.877763
H       1.042927    1.837352    0.079507
H      -0.371586    1.799127   -0.980924
H      -0.587972    1.933532    0.775701
H      -2.176294   -0.090303    0.494114
H      -1.714570   -0.724446   -1.084736
H      -1.844797   -2.188753    1.520714
H      -1.573833   -2.901397   -0.066420
H       0.560567   -2.946990    1.603297
H       1.450644   -2.816368   -1.025072
H       2.965789   -0.643877    0.208866
H       0.775519   -0.343960    2.268392
