19

O       0.084275    1.428004   -0.102087
C       0.025789    0.018303    0.006395
C       0.619368   -0.492714    1.348597
C      -0.574500   -0.542154    2.286824
N      -1.414794    0.677270    2.198649
C      -1.817574   -0.556720    1.474415
C      -1.424097   -0.499493    0.027016
C      -2.345212   -0.257165   -1.100507
N      -1.869229   -1.626452   -0.809939
H      -0.426442    1.757004    0.654378
H       0.572829   -0.373832   -0.857281
H       1.028742   -1.503298    1.233974
H       1.420469    0.169028    1.688249
H      -0.507716   -1.056089    3.239811
H      -1.971731    0.776937    3.042800
H      -2.714920   -1.088043    1.769969
H      -3.404455   -0.096196   -0.919091
H      -1.947363    0.267411   -1.964946
H      -1.135073   -1.881630   -1.467214
