17

C      -0.307132    1.469688    0.476308
C      -0.150312   -0.027722    0.550459
N       0.923643   -0.632229   -0.244948
C       1.006431   -0.692626    1.233888
C       2.058690    0.104319    1.828181
N       2.886387    0.721816    2.347964
C       0.814478   -2.026048    1.914788
C      -0.283056   -2.275557    2.856251
O      -0.332314   -2.763346    1.508033
H       0.665329    1.964826    0.432952
H      -0.870459    1.741176   -0.421954
H      -0.853071    1.846166    1.347219
H      -1.072498   -0.601125    0.617575
H       0.632242   -1.549746   -0.579310
H       1.725169   -2.617857    2.009909
H      -0.173129   -3.041405    3.620876
H      -0.981168   -1.473022    3.084388
