23

C      -0.045508    1.570582    0.081695
C      -0.016488    0.044356   -0.033370
C       0.761077   -0.453060   -1.258547
C       0.776291   -1.973481   -1.370999
C      -0.516554   -2.738251   -1.771083
C       0.352214   -3.704629   -2.615208
C       1.528903   -2.677333   -2.565737
C       1.615168   -1.837302   -3.809892
O       2.642407   -1.492723   -4.338326
H       0.967388    1.981247    0.158037
H      -0.519366    2.024902   -0.795488
H      -0.603558    1.893590    0.965991
H       0.430194   -0.384809    0.873499
H      -1.044251   -0.339481   -0.075050
H       0.323389   -0.013551   -2.165196
H       1.794371   -0.082669   -1.210785
H       1.175612   -2.396852   -0.441964
H      -1.120038   -3.170189   -0.969594
H      -1.169982   -2.122590   -2.398165
H       0.608400   -4.619206   -2.075888
H      -0.018983   -3.981262   -3.605776
H       2.527080   -3.059257   -2.342735
H       0.629915   -1.542179   -4.244237
