24

C      -0.178612    1.567903   -0.039542
C      -0.055507    0.042631    0.008828
C       0.771731   -0.456466    1.198842
C       0.892387   -1.983835    1.236815
C       1.574567   -2.566428    2.488386
C       1.553069   -4.100989    2.423237
C       3.016106   -2.061804    2.655923
O       0.774582   -2.125857    3.595123
H       0.805509    2.042850   -0.123623
H      -0.779297    1.895220   -0.894181
H      -0.653225    1.954456    0.869255
H      -1.057860   -0.403947    0.052690
H       0.394264   -0.318164   -0.926288
H       1.768649    0.001116    1.152830
H       0.316860   -0.114634    2.135069
H      -0.113503   -2.419489    1.183274
H       1.433473   -2.338640    0.350313
H       2.116996   -4.474050    1.561898
H       2.001739   -4.533161    3.325759
H       0.523581   -4.462586    2.348410
H       3.038307   -0.978078    2.790765
H       3.481489   -2.521581    3.536180
H       3.631991   -2.317839    1.787403
H       1.183424   -2.454871    4.402461
