20

C      -0.261624    1.498535   -0.146585
C       0.093536    0.015671   -0.013736
C       0.704291   -0.557999   -1.290698
N       1.014044   -1.982743   -1.128990
C       1.578029   -2.584653   -2.318598
C       1.724137   -4.117089   -2.297951
O       0.756730   -4.238600   -3.391574
C       0.544764   -2.885314   -3.420927
O      -0.216164   -2.280134   -4.104839
H       0.623409    2.102183   -0.376011
H      -0.989193    1.659688   -0.949254
H      -0.696635    1.885093    0.779679
H       0.800150   -0.119848    0.817316
H      -0.797681   -0.568707    0.240845
H      -0.005397   -0.465885   -2.119828
H       1.596548    0.032258   -1.574803
H       1.667571   -2.097171   -0.358830
H       2.462098   -2.064209   -2.727048
H       2.692495   -4.526088   -2.591159
H       1.344408   -4.596349   -1.393782
