20

C       0.001413    1.650194    0.216616
C       0.053775    0.123933    0.125263
C      -1.332284   -0.507618   -0.102676
C      -1.298582   -2.002699   -0.142654
C      -1.421545   -2.870326   -1.209630
C      -1.647339   -2.667975   -2.670002
N      -1.285387   -4.093609   -0.633115
N      -1.091973   -4.006655    0.696873
N      -1.099111   -2.741415    0.992483
H       0.996947    2.072606    0.384153
H      -0.396603    2.092261   -0.704131
H      -0.641322    1.974997    1.042427
H       0.724656   -0.179711   -0.688294
H       0.477478   -0.295007    1.044651
H      -2.003886   -0.191724    0.704804
H      -1.763483   -0.121404   -1.034386
H      -0.793098   -3.007646   -3.266978
H      -2.533790   -3.206405   -3.023842
H      -1.797194   -1.607490   -2.882851
H      -1.320865   -5.002910   -1.065922
