19

C       0.053891    1.473399    0.123304
C       0.016030   -0.011730   -0.031228
C       0.700416   -0.939216   -1.076533
C       0.078668   -1.817432    0.034975
O       0.614853   -0.870260    1.040438
C      -1.191739   -0.966950   -0.038177
C      -2.480976   -0.931926    0.708330
C      -2.448479   -0.983422   -0.819590
O      -2.734582    0.172805   -1.557892
H       1.086279    1.834093    0.148696
H      -0.469435    1.941047   -0.715297
H      -0.441586    1.771916    1.052441
H       0.267647   -0.984785   -2.078803
H       1.791011   -0.903754   -1.071312
H       0.195451   -2.882670    0.232974
H      -2.814713   -1.813135    1.247720
H      -2.770416    0.014045    1.156740
H      -2.757333   -1.917963   -1.290645
H      -3.687123    0.313664   -1.533818
