18

C      -0.018441    1.641094   -0.058947
C       0.096838    0.125123    0.025205
C       1.137641   -0.662082   -0.803964
C       2.536521   -0.133683   -0.420147
C       2.222166   -0.758656    0.925008
N       1.247776   -1.721304    0.344608
C       0.755275   -0.563097    1.214195
C       0.196502   -0.833184    2.557867
O       0.778544   -1.441101    3.423422
H       0.935260    2.138725    0.136784
H      -0.366005    1.951035   -1.050391
H      -0.741471    2.014850    0.673909
H      -0.883028   -0.339555   -0.136604
H       0.912951   -0.998926   -1.814024
H       3.319301   -0.701394   -0.929061
H       2.747762    0.936409   -0.496538
H       2.888124   -1.055305    1.726522
H      -0.828662   -0.431180    2.723755
