21

O      -0.447554    1.320770    0.089931
C      -0.031601   -0.038396   -0.018369
C       0.852015   -0.247777   -1.259229
C       0.132065    0.092350   -2.541011
C       0.419354   -0.593497   -3.805641
O      -0.750331   -0.914782   -3.051592
C       0.639431   -0.547304    1.249665
C       1.533084    0.338291    2.083704
C       0.178694   -0.082109    2.602492
H       0.344456    1.869668    0.109657
H      -0.964596   -0.596256   -0.165599
H       1.755484    0.372485   -1.163353
H       1.183287   -1.291471   -1.303283
H      -0.282493    1.099216   -2.585989
H       0.242132   -0.085911   -4.753039
H       1.184894   -1.368694   -3.833692
H       0.943948   -1.588426    1.177764
H       2.422885   -0.098313    2.523122
H       1.652432    1.379738    1.801014
H      -0.594537    0.677303    2.617546
H       0.132424   -0.802446    3.411369
