11

C       0.095894   -3.749630   -0.019924
C       0.055751   -2.542358   -0.012540
C       0.011606   -1.186086   -0.004256
C      -0.038362    0.025044    0.003281
C      -0.080276    1.427388    0.011809
C      -1.145389    2.286869    0.031105
O      -0.711673    3.532555    0.032312
N       0.741877    3.446798    0.012069
N       1.051431    2.239714    0.001057
H       0.132643   -4.811138   -0.026440
H      -2.210088    2.120099    0.044588
