15

O       0.125512    1.411731   -0.146366
C       0.033717    0.014101   -0.018308
C       0.714299   -0.585703    1.192191
C      -0.001503   -1.557786    1.750252
C      -1.307323   -1.801126    1.030435
C      -1.435719   -0.553588    0.103735
C      -2.299389    0.458093    0.709401
N      -2.954050    1.271218    1.206929
H      -0.286716    1.818262    0.626380
H       0.481916   -0.373528   -0.941623
H       1.698208   -0.252281    1.500190
H       0.303663   -2.156790    2.600612
H      -1.261037   -2.715867    0.426151
H      -2.161223   -1.912007    1.704757
H      -1.845909   -0.803757   -0.877706
