15

C      -0.032948    1.503620   -0.027728
C       0.008779    0.003001   -0.019156
N       0.018153   -0.656299   -1.177741
C       0.058988   -1.995034   -1.147473
N       0.132738   -2.649461   -2.363122
C       0.078461   -2.684748    0.074448
N       0.061504   -2.032245    1.234685
C       0.031577   -0.724349    1.174746
F       0.016965   -0.057752    2.332989
H       0.843029    1.923079    0.478543
H      -0.057900    1.863125   -1.057021
H      -0.913688    1.875738    0.506337
H      -0.152454   -2.082005   -3.147609
H      -0.222659   -3.592466   -2.390014
H       0.108649   -3.770482    0.112151
