14

N      -0.030210   -1.178899   -0.003777
C      -0.014359   -0.022082    0.001344
C      -0.004576    1.414344    0.026721
C      -0.370845    2.222069   -1.252911
O       0.878735    2.952046   -1.204019
C       1.301826    2.269761   -0.025807
C       0.896107    2.923849    1.328065
O      -0.400777    3.500877    1.153468
C      -0.331405    2.107048    1.392099
H      -0.435827    1.605792   -2.154328
H      -1.239228    2.877781   -1.159989
H       2.301442    1.834439   -0.079993
H       1.525903    3.341052    2.104442
H      -0.889304    1.688950    2.220997
