22

C       0.133288   -0.635531   -2.492202
C      -0.417240   -0.385132   -1.085965
O      -0.611029    1.007003   -0.840159
C      -1.711359   -1.149325   -0.869917
C      -1.936400   -2.445187   -0.187113
C      -1.090341   -2.699797    1.063595
C       0.363250   -3.151769    0.974082
C      -1.509502   -1.273880    1.519852
N      -2.492388   -1.137828    0.380619
H       1.038819   -0.044190   -2.649977
H       0.372999   -1.693962   -2.639146
H      -0.600319   -0.346050   -3.253911
H       0.340096   -0.681325   -0.358769
H      -1.434981    1.272709   -1.263253
H      -2.395725   -1.004292   -1.709994
H      -2.593707   -3.190036   -0.629082
H      -1.632702   -3.422027    1.682601
H       0.984954   -2.477947    0.379506
H       0.807430   -3.216552    1.973514
H       0.429451   -4.146998    0.520301
H      -2.043889   -1.250237    2.471071
H      -0.741139   -0.496937    1.531459
