17

O       0.061230    1.208032   -0.919003
C       0.004207   -0.171781   -0.651193
C      -1.052014   -0.456190    0.434793
O      -2.295285    0.142699    0.044450
C      -1.179073   -1.882398    0.713573
C      -1.282234   -3.072107    0.879441
C      -1.383925   -4.484040    1.128813
C      -2.516320   -5.284343    0.620785
O      -1.238199   -5.370644    0.006739
H      -0.858526    1.496520   -0.987984
H      -0.247041   -0.761449   -1.549216
H       0.992728   -0.490844   -0.307490
H      -0.757704    0.082006    1.343181
H      -2.715086   -0.452412   -0.587899
H      -0.884952   -4.832992    2.032170
H      -2.835216   -6.162207    1.181111
H      -3.288855   -4.790656    0.034442
