19

C       0.305229    1.247738    0.327343
O      -0.119550   -0.031735   -0.101553
C       0.595966   -0.579890   -1.187034
C       2.118769   -0.673823   -0.957703
O       2.475029   -1.219122    0.287529
C      -0.031029   -1.973790   -1.404221
N       0.120027   -2.770806   -0.179056
C      -1.436153   -1.857389   -1.849364
N      -2.539460   -1.812683   -2.190760
H       1.285354    1.203436    0.816336
H       0.345629    1.960368   -0.509613
H      -0.437695    1.597283    1.047563
H       0.431693    0.016925   -2.101009
H       2.548189   -1.234111   -1.807377
H       2.550504    0.331653   -1.001492
H       1.948929   -2.028888    0.386037
H       0.523447   -2.470409   -2.208041
H      -0.397385   -2.310268    0.564757
H      -0.273329   -3.697977   -0.304181
