18

C       0.018353    1.492409    0.063247
C      -0.002572    0.000003   -0.015628
C       0.014155   -0.771906   -1.103713
C       0.042317   -2.221527   -0.731648
C       1.249888   -2.631849    0.062130
N       0.022613   -2.276887    0.767691
C      -0.038161   -0.873192    1.225973
C      -0.721488   -3.173636   -1.489020
C      -1.343617   -3.953705   -2.159840
H       0.918906    1.851464    0.577369
H      -0.008485    1.948898   -0.929417
H      -0.838350    1.868620    0.636738
H       0.012948   -0.437515   -2.133316
H       1.514317   -3.683614    0.128199
H       2.086148   -1.934985    0.066271
H       0.793576   -0.665793    1.912407
H      -0.964593   -0.720080    1.796476
H      -1.901524   -4.647729   -2.738121
