17

C      -0.084184    1.520652   -0.144310
C      -0.080103    0.006086    0.052412
N      -1.424588   -0.553890    0.037878
N      -1.987576   -1.083435    1.106369
N      -3.194716   -1.462176    0.739875
C      -3.295130   -1.128464   -0.566660
O      -4.359323   -1.337879   -1.332337
C      -5.467565   -1.973304   -0.688024
N      -2.197577   -0.551268   -1.048674
H       0.943924    1.893325   -0.139277
H      -0.545363    1.782810   -1.099145
H      -0.636294    2.015463    0.659325
H       0.491823   -0.489678   -0.737041
H       0.339995   -0.276617    1.019226
H      -5.833546   -1.367390    0.145974
H      -6.236817   -2.066429   -1.454632
H      -5.185425   -2.960472   -0.310617
