10

O      -0.017142    0.041595    0.004276
C      -0.007314    1.221075    0.009734
O      -1.181900    2.017903    0.029873
C      -0.691823    3.278044    0.029253
C       0.632562    3.317873    0.011223
O       1.117712    2.026431   -0.001785
N       1.087064    4.604479    0.011735
C      -0.028317    5.279364    0.031310
O      -1.196577    4.516852    0.042716
H      -0.172615    6.345726    0.039031
