20

C       0.056767    1.731556    0.005229
C      -0.044551    0.208221    0.042455
C      -1.485901   -0.299558    0.264490
C      -2.448312   -0.067574   -0.897383
O      -2.064318   -0.921690   -1.973463
N       0.711499   -0.472397   -1.059614
C       1.492760   -1.318299   -0.123104
C       0.923722   -0.481873    1.031064
O       1.137833   -0.379024    2.202225
H       1.094991    2.036339   -0.146976
H      -0.532437    2.150363   -0.816817
H      -0.300747    2.164395    0.945235
H      -1.471818   -1.377397    0.469419
H      -1.892097    0.185480    1.159434
H      -3.471865   -0.301345   -0.567236
H      -2.437140    0.986816   -1.208209
H      -2.582979   -0.690546   -2.749324
H       0.099159   -0.984309   -1.683909
H       1.195449   -2.374844   -0.057748
H       2.579582   -1.274999   -0.258273
