16

O      -0.526740    0.197034    0.423676
C      -0.175640    1.133936   -0.241962
C       1.125377    1.893899   -0.027197
N       1.613770    2.445339   -1.279597
C       2.652649    3.436079   -1.180029
C       3.667727    3.290588   -2.316121
O       3.660403    2.362090   -3.079650
C       2.108079    4.872272   -1.215559
O       2.786969    5.840401   -1.003255
H      -0.793241    1.538141   -1.075040
H       0.881025    2.723988    0.652613
H       1.832880    1.241772    0.509180
H       1.916393    1.720670   -1.924340
H       3.266145    3.370109   -0.261598
H       4.409518    4.109793   -2.369134
H       1.031322    4.924841   -1.485023
