16

C       0.099340    1.406124    0.162606
C      -0.037244   -0.072560    0.087417
N      -1.118511   -0.780739    0.183728
C      -0.697208   -2.103762    0.045500
C      -1.645070   -3.252112    0.096656
C       0.646681   -2.122567   -0.130883
N       1.558081   -3.159210   -0.314787
O       1.087015   -0.802118   -0.105047
H       0.757069    1.701323    0.986996
H       0.527955    1.811241   -0.760190
H      -0.886899    1.843634    0.319406
H      -1.106375   -4.193256   -0.033388
H      -2.176053   -3.279474    1.054377
H      -2.403993   -3.168953   -0.688857
H       2.256040   -3.200968    0.421380
H       2.044390   -3.098790   -1.203993
