21

C      -0.315083    1.655383    0.315756
C       0.007070    0.177817    0.079759
C       0.831894   -0.444854    1.212110
C       1.101163   -1.923357    0.999073
C       1.666081   -2.739212    2.181070
C       0.357840   -3.567231    2.060807
O      -0.120609   -2.713187    0.992019
C       0.499122   -4.961428    1.669378
C       0.625269   -6.114946    1.355246
H       0.598895    2.253315    0.407131
H      -0.903246    2.070870   -0.508346
H      -0.891689    1.792114    1.237399
H      -0.920800   -0.394815   -0.029437
H       0.551587    0.065482   -0.867145
H       1.797286    0.072859    1.306127
H       0.308054   -0.314043    2.168545
H       1.649560   -2.075700    0.058791
H       2.583184   -3.294729    1.988651
H       1.758612   -2.184327    3.116472
H      -0.303234   -3.497682    2.933872
H       0.729394   -7.134132    1.075256
