16

C      -0.051108    1.564521    0.137256
C      -0.031418    0.039215    0.019864
O       0.694188   -0.468192    1.133622
C      -1.411900   -0.491571    0.036761
N      -2.470750   -0.950953    0.088103
C       0.658557   -0.428028   -1.303820
O      -0.038217    0.019012   -2.423314
C       2.105215    0.044800   -1.349610
O       2.515512    0.667730   -2.298743
H       0.973070    1.933194    0.241204
H      -0.502703    1.997414   -0.756518
H      -0.620327    1.867441    1.017488
H       0.502349   -1.408241    1.231015
H       0.690391   -1.533071   -1.270905
H       0.614180    0.491095   -2.967766
H       2.745130   -0.220758   -0.490530
