17

C      -0.185574   -2.305945   -0.550461
N      -0.327030   -0.892877   -0.215514
C      -1.639471   -0.517381    0.259456
C      -1.557511    0.828714    1.000154
O      -0.643085    0.651767    2.069071
C      -2.608776   -0.348765   -0.905874
O      -3.786712   -0.591783   -0.857001
C      -2.016619    0.195883   -2.151970
N      -1.638905    0.648357   -3.147112
H       0.849701   -2.504800   -0.838263
H      -0.457144   -2.986145    0.274364
H      -0.816695   -2.554937   -1.410704
H       0.349263   -0.622402    0.489389
H      -2.102187   -1.252167    0.940481
H      -1.211661    1.605225    0.302745
H      -2.559255    1.099218    1.360845
H      -0.398627    1.517729    2.408271
