18

C       0.030730    1.413867    0.031565
C       1.345739    0.697754   -0.054874
C       1.747503    0.110926    1.312981
C       0.399612   -0.689693    1.364411
C       0.027037   -0.095636   -0.009950
C      -0.079294   -0.751993   -1.337600
C       0.963464   -0.426416   -2.116590
C       1.992906    0.457646   -1.412469
H      -0.236985    1.922837    0.955038
H      -0.313439    1.908245   -0.870137
H       2.616639   -0.548283    1.246243
H       1.925791    0.835156    2.115284
H       0.554387   -1.770071    1.334016
H      -0.282723   -0.459272    2.188985
H      -0.905116   -1.384446   -1.646874
H       1.071322   -0.718151   -3.157267
H       2.192196    1.378654   -1.975689
H       2.959772   -0.055742   -1.317285
