20

C      -0.002544    1.504990    0.208993
C      -0.038096    0.026001   -0.039725
C      -0.969465   -0.929996    0.743903
C      -1.044708   -2.213769   -0.055680
N       0.415222   -2.028482   -0.437899
C       0.523830   -1.092197    0.792351
C       0.398952   -0.749083   -1.275656
C      -0.361543   -0.807202   -2.588794
O       0.167913   -1.829946   -3.417052
H       0.958627    1.933774   -0.096317
H      -0.792060    2.025013   -0.345309
H      -0.143391    1.732068    1.271096
H      -1.626196   -0.551706    1.517783
H      -1.118207   -3.098205    0.582915
H      -1.748754   -2.311614   -0.887819
H       1.264108   -1.163257    1.576737
H       1.449764   -0.528992   -1.499397
H      -1.441688   -0.939347   -2.426180
H      -0.235897    0.140102   -3.126671
H       0.371344   -2.575512   -2.838980
