16

O       0.256475    0.157873   -0.467101
C       0.223253    1.314989   -0.122194
N       1.280274    1.993840    0.448068
C       2.675512    1.950287    0.087839
C       3.002506    1.554851   -1.336185
C       2.312032    2.605347   -2.224928
O       2.252770    2.573660   -3.423001
C       1.729318    3.731086   -1.342912
C       1.890531    3.254798    0.085208
H      -0.692648    1.935883   -0.160134
H       3.366835    1.709119    0.889082
H       4.081871    1.582099   -1.523167
H       2.641950    0.556525   -1.596866
H       2.310821    4.644839   -1.515723
H       0.699933    3.950720   -1.639384
H       1.996677    3.980696    0.885583
