10

O       0.130496    1.350564    0.006791
C      -0.004480    0.038991    0.000911
C      -1.102437   -0.738843    0.003019
O      -0.658780   -2.075170   -0.006190
C       0.689620   -2.070946   -0.013567
O       1.420506   -2.999671   -0.022310
O       1.110767   -0.733355   -0.009131
C      -2.471081   -0.446334    0.012026
N      -3.602598   -0.194668    0.019524
H       1.069451    1.580172    0.002846
