12

C      -0.013304    1.490065    0.118461
O       1.279068    2.004563   -0.336280
C       2.268913    1.204883   -0.745240
N       2.309873   -0.076581   -0.825423
C       1.128209   -0.644640   -0.414360
C       0.018037    0.003922    0.031661
N      -0.913209   -0.941936    0.330462
N      -0.455875   -2.097009    0.101778
O       0.906183   -1.947160   -0.397537
H      -0.156115    1.865710    1.137742
H      -0.773757    1.949654   -0.522582
H       3.131494    1.798032   -1.036209
