22

C       0.399154    1.425936    0.400318
C      -0.266925    0.160420   -0.154303
C       0.494460   -0.423089   -1.333982
N       1.855262   -0.964895   -1.074820
C       0.814849   -1.905922   -1.479406
C       0.366943   -2.867269   -0.391107
C       0.882942   -2.577350   -2.843408
C       0.335757    0.359831   -2.597898
O      -0.498714    1.213700   -2.773063
H       1.423487    1.211546    0.719374
H       0.429235    2.217665   -0.353468
H      -0.155296    1.807395    1.262884
H      -0.358719   -0.581612    0.640341
H      -1.279346    0.395301   -0.497976
H       2.475842   -0.746765   -1.855112
H       0.526163   -2.454260    0.604429
H      -0.690299   -3.128829   -0.505302
H       0.949822   -3.792374   -0.462195
H       1.552783   -3.442930   -2.787227
H      -0.103167   -2.946232   -3.144574
H       1.252178   -1.924373   -3.635396
H       1.083412    0.130078   -3.390992
