15

O       0.111988    1.406763   -0.205321
C       0.005359    0.001326   -0.047142
C       0.648254   -0.544580    1.235216
C      -0.199975   -1.303312    1.953658
C      -1.490114   -1.346848    1.265535
C      -2.783738   -1.811848    1.267403
N      -3.354030   -1.290133    0.136873
N      -2.514846   -0.518696   -0.600209
C      -1.392346   -0.562413    0.092392
H      -0.391341    1.814249    0.508393
H       0.509878   -0.418577   -0.926643
H       1.674433   -0.313215    1.491003
H       0.029814   -1.798325    2.889038
H      -3.345245   -2.447911    1.932953
H      -4.301625   -1.409271   -0.178496
