21

C      -0.103348    1.498065   -0.051736
C      -0.030682    0.003450   -0.071500
C       0.050233   -0.790771   -1.139605
C       0.139089   -2.254389   -0.787494
C       0.402991   -2.223396    0.735593
C      -0.022901   -0.818723    1.221506
O       0.927904   -0.341134    2.170370
C      -1.397978   -0.858013    1.906075
O      -1.654690    0.442021    2.437390
H       0.720663    1.908656    0.543918
H      -0.036484    1.913569   -1.060942
H      -1.030782    1.846040    0.414654
H       0.041641   -0.438635   -2.166818
H      -0.794310   -2.781976   -1.029649
H       0.931258   -2.774702   -1.338312
H      -0.101622   -3.027901    1.279113
H       1.473120   -2.312703    0.939950
H       0.476498    0.350713    2.671146
H      -2.174216   -1.156180    1.186938
H      -1.361948   -1.602230    2.714568
H      -2.390421    0.384498    3.052955
