18

C       0.123700    1.550598   -0.356091
C       0.021260    0.083928   -0.018571
N       1.260693   -0.702490   -0.018369
C       0.530340   -0.527467    1.253115
C       1.183871    0.185128    2.361305
C       1.043827    0.059037    3.712172
C       1.922275    1.022152    4.305982
C       2.530203    1.658207    3.272778
O       2.092536    1.161593    2.083801
H       1.034484    1.982704    0.059137
H       0.139192    1.688693   -1.442677
H      -0.738109    2.097905    0.040950
H      -0.867191   -0.406368   -0.418660
H       1.105441   -1.637173   -0.385905
H      -0.047467   -1.373326    1.621175
H       0.395837   -0.637194    4.221644
H       2.080496    1.206764    5.356871
H       3.266479    2.441849    3.206678
