23

C      -0.057851    1.465628    0.137065
N      -0.020134    0.018392   -0.070558
C       0.669087   -0.468063   -1.273339
C      -0.012890    0.092294   -2.536139
C       2.088250   -0.011323   -1.262293
N       3.177299    0.372855   -1.190177
C       0.658567   -2.033744   -1.224945
C      -0.768556   -2.599023   -1.242634
C       1.522433   -2.684329   -2.313187
H       0.927095    1.954768    0.074975
H      -0.723139    1.937350   -0.591196
H      -0.473800    1.657433    1.129525
H       0.406211   -0.420636    0.739263
H       0.120817    1.173241   -2.610068
H       0.412901   -0.353303   -3.437225
H      -1.082279   -0.124455   -2.497342
H       1.109672   -2.291169   -0.255795
H      -0.745008   -3.668175   -1.010310
H      -1.403613   -2.096220   -0.511065
H      -1.229027   -2.491698   -2.230310
H       2.548662   -2.307812   -2.303438
H       1.560053   -3.766371   -2.154886
H       1.106222   -2.518665   -3.312421
