18

N      -0.067441    1.210961   -0.607504
C      -0.087831    0.056211   -0.097654
O      -1.124835   -0.768098   -0.333669
C      -1.021778   -2.089245    0.209741
C      -2.378243   -2.728636    0.126101
C      -2.830979   -3.374770   -1.148868
C      -2.500786   -4.247293    0.052930
C      -1.340726   -5.091465    0.046214
C      -0.376063   -5.810771    0.050754
H       0.774634    1.702669   -0.315625
H       0.679622   -0.378420    0.559070
H      -0.286819   -2.673375   -0.356602
H      -0.681777   -2.038352    1.253075
H      -3.139795   -2.232733    0.719809
H      -3.872536   -3.288885   -1.435043
H      -2.131314   -3.396683   -1.976476
H      -3.352102   -4.662732    0.583988
H       0.472471   -6.448981    0.048809
