15

N      -0.117783    1.554523   -0.108294
C       1.350174    1.274273    0.032202
C       1.215809    0.088937    1.026137
C      -0.048162    0.069631    0.011190
C       1.246854   -0.027482   -0.844909
O       1.851879   -0.155266   -2.112578
C       3.134848   -0.497728   -1.686305
N       3.361152   -0.824458   -0.471907
C       1.996328   -0.895411    0.111174
H      -0.479494    1.956613    0.760722
H       2.115786    2.047116    0.000099
H       1.134395    0.148489    2.111392
H      -0.915176   -0.590049    0.028798
H       3.875080   -0.452757   -2.477034
H       1.704273   -1.945605    0.222301
