17

C      -0.199177    1.553171    0.014870
C      -0.025573    0.052248    0.064419
C       1.274540   -0.603590   -0.254018
C       0.769040   -0.653259    1.178531
C       1.484567    0.140577    2.218577
C       1.301333   -0.328963    3.651137
O       2.172812    1.105464    1.949593
H       0.699952    2.066024    0.359700
H      -0.408009    1.871841   -1.012314
H      -1.039280    1.875350    0.639829
H      -0.911556   -0.508170   -0.224293
H       1.284328   -1.531474   -0.814792
H       2.130885    0.044955   -0.407121
H       0.344974   -1.589483    1.526259
H       1.674515   -1.353774    3.762596
H       1.837666    0.332511    4.332178
H       0.237005   -0.349801    3.912126
