20

C      -0.135306    1.433115   -0.025930
C       0.037207   -0.082108    0.018285
C       0.910016   -0.615598   -1.121110
C       2.143263   -0.499242   -0.310880
C       1.192303   -0.552732    0.951151
C       1.253290   -2.078825    0.748737
C       0.087372   -3.034268    0.943427
O       0.434811   -4.322355    0.460815
N       1.658345   -1.855355   -0.687716
H       0.828219    1.939767   -0.148537
H      -0.779114    1.732885   -0.859804
H      -0.596371    1.799633    0.897257
H      -0.936360   -0.559724    0.171608
H       0.780132   -0.495515   -2.189344
H       3.142019   -0.132583   -0.506618
H       1.343332   -0.084816    1.923051
H       2.132098   -2.503185    1.246485
H      -0.139302   -3.144697    2.010261
H      -0.820841   -2.661510    0.448442
H       0.810867   -4.189566   -0.417960
