17

O      -0.210763    1.441470    0.139582
C      -0.121830    0.046461    0.078473
C      -0.420350   -0.814857    1.270951
C      -1.544149   -0.192183    2.113397
C      -2.423318   -0.177728    0.848341
C      -3.883442   -0.335302    0.741199
N      -3.236187    0.938049    0.341960
C      -1.336592   -0.827784    0.020166
H      -1.009804    1.697735   -0.335503
H       0.715637   -0.306100   -0.522865
H       0.264285   -1.579818    1.615208
H      -1.925762   -0.866219    2.884322
H      -1.315441    0.782711    2.554183
H      -4.313033   -0.905342   -0.078763
H      -4.468055   -0.352659    1.657758
H      -3.363545    1.624953    1.082286
H      -1.486775   -1.588184   -0.737107
