18

C      -0.200046    1.551919   -0.001130
C       0.043131    0.061450    0.001626
C      -1.124817   -0.904423    0.265018
O      -0.322692   -1.706139    1.160169
C       0.757476   -0.756992    1.131955
C       1.888989   -1.128131    0.158300
O       2.242689   -2.484034    0.156572
C       1.058715   -0.535191   -1.026058
H       0.741522    2.111895    0.003410
H      -0.755541    1.855579   -0.897002
H      -0.781317    1.864101    0.873233
H      -1.975107   -0.449082    0.793381
H      -1.500525   -1.479548   -0.590645
H       1.017932   -0.394989    2.131497
H       2.755833   -0.480113    0.366621
H       2.955336   -2.609792   -0.477765
H       0.626258   -1.300360   -1.676168
H       1.587373    0.198716   -1.639785
