21

C      -0.114343    1.568003   -0.002264
C      -0.023579    0.044182   -0.030187
C       1.206567   -0.507562   -0.814874
C       1.963223   -0.686695    0.531417
C       0.587366   -0.588233    1.248132
O       0.469340    0.198465    2.407129
C       1.053314   -0.406999    3.545166
C       0.869349    0.444349    4.713361
C       0.732653    1.126228    5.692231
H       0.844420    2.026853    0.258132
H      -0.413075    1.945446   -0.985986
H      -0.848350    1.904966    0.734639
H      -0.991526   -0.374659   -0.320688
H       0.998298   -1.462469   -1.304167
H       1.656108    0.166527   -1.547947
H       2.553262   -1.595607    0.669565
H       2.585337    0.180835    0.768822
H       0.172133   -1.592346    1.431995
H       0.596734   -1.394888    3.730437
H       2.129579   -0.583557    3.384451
H       0.607220    1.733984    6.553921
