19

C      -0.177612    1.576971    0.017894
C       0.003562    0.067267    0.041775
C       1.223850   -0.602105   -0.656020
C       2.164017   -0.173874    0.519209
C       3.134617   -1.324215    0.746751
O       2.267497   -2.460093    0.562406
C       1.027729   -1.846622    0.255297
C       0.792945   -0.613745    1.174837
O       0.438446   -0.587283    2.508565
H       0.751102    2.117216    0.220007
H      -0.549107    1.906460   -0.958423
H      -0.910881    1.884973    0.770529
H      -0.948913   -0.430690   -0.179490
H       1.472329   -0.604459   -1.714998
H       2.529993    0.846533    0.608388
H       3.956645   -1.359200    0.021040
H       3.563366   -1.336629    1.757880
H       0.253840   -2.589893    0.067303
H       0.907207   -1.298322    2.960489
