15

C       0.006750    1.531978    0.031287
C       0.002943    0.029277    0.013424
C      -1.153770   -0.698623    0.055036
N      -2.410330   -0.172219    0.152489
O      -1.213051   -2.047619    0.046314
N      -0.049164   -2.820253    0.013922
C       1.055191   -2.170964   -0.024265
C       1.242229   -0.699744   -0.035564
O       2.367569   -0.213705   -0.079843
H       1.044758    1.869942    0.021347
H      -0.495559    1.962495   -0.845362
H      -0.481087    1.936263    0.926355
H      -2.526020    0.783122   -0.143714
H      -3.171032   -0.794324   -0.074158
H       1.943885   -2.796213   -0.050242
