20

C       0.080204    1.627318    0.014585
C      -0.033252    0.114767    0.017813
O       0.804298   -0.386342   -1.033372
C       0.845170   -1.729193   -1.192778
C       1.778403   -2.024100   -2.346224
O       2.197189   -3.117744   -2.627474
N       0.173654   -2.516425   -0.465175
C       0.206910   -3.964563   -0.625925
C       1.284487   -4.594953    0.263400
H       1.112677    1.942408    0.190284
H      -0.247665    2.041988   -0.942904
H      -0.547830    2.048078    0.805334
H       0.289691   -0.322710    0.968928
H      -1.060598   -0.223965   -0.155827
H       2.055520   -1.117905   -2.923505
H      -0.775976   -4.334538   -0.313098
H       0.369395   -4.270027   -1.664231
H       2.280920   -4.304673   -0.079816
H       1.164847   -4.276289    1.303070
H       1.213312   -5.686241    0.224853
