19

C      -0.009684    1.464628   -0.269057
C      -0.107947    0.015063    0.221844
C      -1.494618   -0.551058    0.112573
O      -2.474248    0.128709    0.859332
C      -3.622505   -0.607155    0.559130
C      -3.592174   -1.162663   -0.852104
C      -3.316611   -2.076413    0.341464
C      -1.809546   -2.035388    0.025403
C      -2.085878   -1.121503   -1.169312
H       1.009562    1.846120   -0.156965
H      -0.287335    1.541788   -1.325117
H      -0.683033    2.109684    0.301211
H       0.569330   -0.627019   -0.352937
H       0.215725   -0.047187    1.268002
H      -4.524941   -0.252863    1.038332
H      -4.416070   -1.139879   -1.551441
H      -3.883926   -2.901555    0.748460
H      -1.086653   -2.829354    0.153698
H      -1.618150   -1.073164   -2.143094
