20

C      -0.693564    1.553023    0.037115
C      -0.114845    0.142792   -0.040116
C      -1.195562   -0.909124   -0.301534
N       1.083274    0.036076   -0.949063
C       1.974217   -0.467860    0.141634
C       3.215601    0.414697    0.310669
O       3.905805    0.518573   -0.916285
C       0.817984   -0.249856    1.127478
O       0.688152   -0.322947    2.313478
H       0.098001    2.292700    0.180306
H      -1.223877    1.799196   -0.889010
H      -1.397888    1.629509    0.871318
H      -1.681350   -0.719665   -1.265558
H      -0.777949   -1.921209   -0.319282
H      -1.962736   -0.873886    0.477411
H       0.943657   -0.646848   -1.685924
H       2.272501   -1.518438    0.036545
H       2.914313    1.404768    0.687381
H       3.901194   -0.026566    1.039923
H       3.247735    0.837477   -1.548529
