17

C      -0.002568    1.453038    0.026585
C      -0.064285   -0.034263   -0.021704
N      -1.074507   -0.764386    0.231588
C      -0.644090   -2.132096    0.049158
C      -1.202674   -3.203181    0.945863
C      -1.613785   -3.138751   -0.507294
C       0.831959   -2.063571   -0.365416
O       1.104087   -0.647466   -0.379303
H       0.761544    1.777777    0.739969
H       0.277641    1.852792   -0.953201
H      -0.972870    1.851020    0.321363
H      -0.535344   -4.000800    1.257951
H      -1.923973   -2.890818    1.692105
H      -2.611367   -2.783086   -0.737629
H      -1.226885   -3.892423   -1.186420
H       1.512261   -2.541478    0.347907
H       1.027369   -2.465109   -1.365729
