25

C       0.071615    1.534591   -0.153111
C       0.040141    0.025366    0.109297
C      -1.362769   -0.565370    0.058960
C      -2.103994   -0.640107   -1.307781
C      -2.641942   -2.039670   -0.899681
C      -4.144521   -2.103033   -0.502339
C      -4.436355   -2.797034   -1.859945
C      -2.921301   -3.119301   -1.972427
C      -1.537264   -2.105429    0.179251
H       1.093297    1.925699   -0.118844
H      -0.343306    1.774087   -1.138279
H      -0.518188    2.077900    0.593786
H       0.670540   -0.489726   -0.628681
H       0.485787   -0.186759    1.090649
H      -1.998752   -0.061077    0.796788
H      -2.837243    0.137044   -1.543120
H      -1.392689   -0.711738   -2.139513
H      -4.307325   -2.781033    0.342250
H      -4.652541   -1.157401   -0.290856
H      -5.134748   -3.637091   -1.857058
H      -4.758778   -2.082917   -2.622748
H      -2.440272   -2.990537   -2.946742
H      -2.690115   -4.123910   -1.601877
H      -0.649557   -2.636047   -0.185755
H      -1.811672   -2.518339    1.154992
