18

C       0.023125    1.539409    0.021584
C      -0.090266    0.045699    0.001597
C       0.054920   -0.833348    1.214014
C      -0.761351   -2.112477    1.372115
C      -0.303127   -2.965900    0.162684
C       0.370713   -1.932807   -0.738353
N       1.090765   -0.944721    0.183456
C      -0.560707   -0.782258   -1.148586
O      -1.196638   -0.528552   -2.135088
H       0.713227    1.866853    0.803939
H       0.382765    1.914620   -0.940916
H      -0.954744    1.992684    0.215675
H       0.372213   -0.302049    2.107855
H      -0.531438   -2.598419    2.323903
H      -1.836350   -1.911866    1.358189
H       0.423376   -3.724230    0.470414
H      -1.127148   -3.474328   -0.344032
H       1.005185   -2.324538   -1.533289
