12

O       0.011400    1.184242    0.537086
C      -0.048090   -0.059638    0.054548
N      -1.212346   -0.602968   -0.035578
C      -1.395104   -1.930591   -0.343040
O      -2.249359   -2.378790   -1.070177
C      -0.473847   -2.845679    0.425804
N       0.802418   -2.795722    0.331397
C       1.461742   -1.790363   -0.332664
N       1.177615   -0.531724   -0.386916
H       0.928284    1.479329    0.451825
H      -0.921764   -3.615096    1.057186
H       2.411013   -2.099131   -0.767759
