15

C      -0.014439    1.490266    0.258650
C       0.004113    0.007738    0.042284
C      -0.937589   -0.975312    0.722730
C       0.530509   -1.146368    0.919708
O       1.096707   -1.814497   -0.235268
C       0.729151   -0.745425   -1.052473
O       1.010120   -0.578855   -2.191627
C       1.298774   -1.028529    2.167583
O       0.853169   -0.502866    3.160515
H       0.938672    1.944234   -0.025784
H      -0.804749    1.957611   -0.337206
H      -0.203510    1.714760    1.312394
H      -1.474807   -0.556611    1.568148
H      -1.461822   -1.733478    0.150295
H       2.329318   -1.434997    2.113442
