17

O      -0.126749    1.478325   -0.165793
C       0.067799    0.093016    0.082363
C      -1.304558   -0.549591    0.003402
C      -2.042356   -0.844060   -1.339625
C      -1.081647   -2.029913   -1.609127
C      -1.517632   -2.095543   -0.116248
N      -2.933657   -1.856786   -0.624903
C      -1.202317   -3.107351    0.865021
N      -0.926304   -3.897245    1.662800
H       0.712547    1.929696   -0.036118
H       0.769962   -0.345509   -0.640069
H       0.482571   -0.083445    1.087405
H      -1.957976   -0.091306    0.753998
H      -2.450956   -0.132629   -2.054081
H      -1.490842   -2.825586   -2.229912
H      -0.036579   -1.816454   -1.822677
H      -3.467356   -1.376340    0.108016
