24

C       0.255810    1.611056    0.035401
C       0.146145    0.084468   -0.034729
C       0.644359   -0.596978    1.245380
C       0.624547   -2.144147    1.239663
C      -0.798549   -2.713511    1.157359
O       1.418966   -2.645184    0.156906
C       1.299393   -2.642577    2.514819
C       1.935835   -3.977584    2.581680
N       2.761210   -2.751063    2.589204
H       1.292585    1.925005    0.197490
H      -0.094653    2.078908   -0.889793
H      -0.342957    2.012538    0.860298
H      -0.896956   -0.190974   -0.233202
H       0.733444   -0.273995   -0.890464
H       1.677393   -0.281719    1.436258
H       0.050436   -0.245465    2.099332
H      -1.312226   -2.382105    0.248311
H      -0.762901   -3.805887    1.152200
H      -1.401075   -2.391349    2.012857
H       0.953571   -2.466767   -0.665091
H       0.843801   -2.240818    3.418358
H       1.932142   -4.535817    3.513779
H       1.933067   -4.578624    1.678075
H       3.128704   -2.621279    1.648209
