20

C       0.114239    1.537912   -0.457201
C      -0.023002    0.123328    0.065211
C       1.174653   -0.798218    0.151906
O       2.463876   -0.287884   -0.075819
C       0.518072   -0.321371    1.417885
C       1.271211    0.618169    2.342543
N       2.449293   -0.017762    2.915803
C       2.591587   -0.275408    4.239408
O       1.792480    0.015268    5.106838
H       1.129936    1.920188   -0.332938
H      -0.121090    1.572635   -1.526814
H      -0.571356    2.223448    0.051612
H      -0.949836   -0.364237   -0.226486
H       1.051380   -1.841899   -0.134450
H       2.593930   -0.190649   -1.024856
H      -0.071276   -1.066711    1.944010
H       1.574870    1.526956    1.817265
H       0.640194    0.912985    3.183346
H       3.157376   -0.331814    2.270180
H       3.549045   -0.792337    4.453097
