19

C       0.030413    1.635141    0.072858
C       0.004038    0.112049   -0.011951
C       1.178815   -0.481319   -0.857921
O       1.872949   -0.883721    0.337669
C       0.732743   -0.582040    1.162854
N      -1.345611   -0.392195   -0.216747
C      -1.969761    0.004342   -1.478222
C      -3.250849   -0.682546   -1.657666
N      -4.250127   -1.241045   -1.810193
H       1.030824    1.973544    0.355892
H      -0.210771    2.105072   -0.886318
H      -0.685077    1.988375    0.821424
H       0.891413   -1.343696   -1.478134
H       1.771773    0.214951   -1.462352
H       0.992016    0.044630    2.023261
H       0.227417   -1.490483    1.521302
H      -1.341844   -1.405601   -0.156518
H      -2.162234    1.082516   -1.469104
H      -1.352794   -0.198760   -2.372359
