17

C       0.185334    1.444809    0.199079
C       0.035960   -0.034691    0.010734
C       1.125711   -0.928376   -0.400940
C       0.597919   -1.151874    1.025017
C       1.466494   -0.937462    2.191601
O       2.464456   -0.249259    2.172074
C      -0.757835   -1.778439    0.986793
O      -1.290790   -2.596983    1.683307
C      -1.304637   -0.788640   -0.073671
H       1.182233    1.684853    0.578954
H       0.047726    1.966642   -0.755143
H      -0.556809    1.834325    0.903016
H       0.960852   -1.714204   -1.133061
H       2.127479   -0.509400   -0.387992
H       1.121300   -1.432712    3.122305
H      -2.157267   -0.235163    0.329945
H      -1.569836   -1.193251   -1.054885
