25

C       0.960159    1.736596   -0.106177
C       0.587252    0.255179   -0.242075
C       0.786565   -0.541417    1.045822
C      -0.252983   -0.467227    2.233063
C      -1.590829    0.232224    2.013418
C      -0.246683   -2.031412    2.319655
C      -1.373153   -2.786992    1.574621
C      -0.559880   -2.688670    0.249363
C       0.647226   -2.085664    1.030447
H       2.012718    1.852684    0.176021
H       0.806638    2.274405   -1.047244
H       0.358801    2.234501    0.661382
H      -0.448576    0.172948   -0.590950
H       1.204118   -0.199640   -1.029267
H       1.778987   -0.291060    1.440730
H       0.209490   -0.032860    3.124826
H      -2.102493   -0.102842    1.106173
H      -2.265730    0.045180    2.856524
H      -1.460691    1.316492    1.932680
H       0.069457   -2.438737    3.281703
H      -1.469221   -3.818775    1.923933
H      -2.370178   -2.338468    1.584664
H      -0.351616   -3.651130   -0.224254
H      -0.989654   -2.033332   -0.512677
H       1.574571   -2.659003    0.971631
