22

C      -1.393707   -2.686652    0.380413
C      -0.370449   -1.550327    0.265316
C       0.944174   -1.898432    0.950323
C       1.956883   -2.922004    0.363737
C       3.017706   -1.839774    0.560592
C       2.714137   -0.611920   -0.194575
C       2.140040   -0.532846   -1.598060
O       3.180304   -0.409110   -2.558402
N       2.000715   -0.822417    1.086407
H      -1.609235   -2.921584    1.428491
H      -2.337867   -2.418502   -0.102621
H      -1.026524   -3.602665   -0.095513
H      -0.218910   -1.307035   -0.790355
H      -0.765379   -0.642170    0.738394
H       0.711413   -2.186024    1.981733
H       2.099330   -3.801305    0.993498
H       1.802746   -3.258320   -0.666679
H       3.968966   -1.994545    1.060347
H       3.444565    0.184377   -0.037391
H       1.600891   -1.440585   -1.874004
H       1.429659    0.305828   -1.665396
H       3.624962    0.431065   -2.406470
