15

C      -0.009750    1.499921    0.062988
C      -0.003250    0.005869   -0.047029
C      -0.065535   -0.680089   -1.225458
C      -0.046703   -2.098588   -1.108002
F      -0.107234   -2.773811   -2.250227
N       0.021720   -2.788613   -0.028392
C       0.086322   -2.110628    1.182561
N       0.158634   -2.627155    2.346437
N       0.069466   -0.699475    1.106595
H       0.900995    1.855801    0.557134
H      -0.071067    1.959435   -0.923985
H      -0.863216    1.840499    0.659575
H      -0.125181   -0.189368   -2.184478
H       0.162221   -3.640999    2.257187
H       0.117523   -0.230373    1.999590
