23

C      -0.084055    1.480419    0.034927
C       0.030370   -0.015153   -0.014545
C       0.029876   -0.870920   -1.282238
C      -0.240942   -2.088705   -0.355224
C      -0.957986   -3.313574   -0.857787
C       1.080727   -2.199050    0.455156
C       0.700480   -0.862083    1.093366
C       1.307415   -0.278230    2.335552
C      -0.761164   -1.063090    0.743448
H       0.820905    1.964002   -0.353278
H      -0.928575    1.827049   -0.572001
H      -0.242185    1.847607    1.053622
H      -0.839223   -0.638058   -1.907870
H       0.931713   -0.902384   -1.907973
H      -0.357796   -3.831582   -1.616068
H      -1.152999   -4.024412   -0.047008
H      -1.919400   -3.055271   -1.315658
H       1.036187   -3.008310    1.192778
H       2.017423   -2.274589   -0.112945
H       2.342797    0.040787    2.163159
H       0.750513    0.592233    2.695730
H       1.320988   -1.015730    3.146500
H      -1.662662   -0.998397    1.338175
