15

O      -0.073907    1.436003    0.010718
C       0.041475    0.027716    0.002343
C      -1.387653   -0.518598    0.011828
N      -1.422250   -1.970724    0.004597
C      -1.414404   -2.810488   -1.074749
N      -1.395111   -4.062507   -0.697242
N      -1.385499   -4.069598    0.684487
C      -1.399460   -2.821526    1.075048
H       0.808694    1.817176    0.005205
H       0.566822   -0.341390   -0.891895
H       0.582110   -0.350743    0.883458
H      -1.911264   -0.154320    0.899500
H      -1.926589   -0.144988   -0.862705
H      -1.432804   -2.454584   -2.093645
H      -1.403617   -2.476068    2.097691
