21

O       0.069550    1.150358    0.733998
C      -0.038782   -0.199013    0.336587
C      -1.453711   -0.533080   -0.135263
C      -1.697923   -2.037720   -0.351181
C      -2.373004   -2.477246    0.959485
C      -3.165475   -1.228923    1.347891
C      -3.420857   -1.036087    2.834963
O      -4.112209    0.168032    3.098892
O      -2.368184   -0.121224    0.899676
H      -0.677638    1.306040    1.324207
H       0.670740   -0.352399   -0.484264
H       0.241797   -0.885832    1.154042
H      -1.675912    0.056946   -1.032804
H      -2.369944   -2.198129   -1.199151
H      -0.770659   -2.579968   -0.556604
H      -3.007571   -3.358217    0.839868
H      -1.623889   -2.700641    1.727734
H      -4.131452   -1.202465    0.819448
H      -4.047610   -1.850781    3.213801
H      -2.455175   -1.075686    3.366155
H      -3.626916    0.864228    2.641827
