18

O       0.431979    1.149129   -0.454933
C       0.132423   -0.180177   -0.104575
C       0.212849   -0.496553    1.424186
N      -1.264546   -0.515394    1.476022
C      -1.411336   -0.396394    0.010972
C      -2.409532    0.757128   -0.223433
C      -3.094259    0.905674    1.154097
C      -2.013713    0.439122    2.144639
O      -1.805155    0.841001    3.265220
H       1.375694    1.293225   -0.331119
H       0.650910   -0.896001   -0.755163
H       0.662854   -1.462363    1.672195
H       0.649960    0.289004    2.047726
H      -1.733708   -1.334323   -0.453546
H      -1.861401    1.667119   -0.477128
H      -3.109866    0.544591   -1.033347
H      -3.401354    1.923281    1.397562
H      -3.974796    0.259162    1.242828
