19

O      -0.024380   -0.054936    0.325100
C       0.004652    1.138552    0.124213
C      -1.281498    1.943460   -0.039338
C      -1.258934    3.097776   -1.050136
O      -1.177344    2.708114   -2.411472
C      -0.042220    1.977189   -2.786051
O       1.161615    2.570269   -2.358861
C       1.911587    1.838885   -1.401914
C       1.336626    1.879251    0.029680
H      -2.093213    1.241786   -0.250611
H      -1.487477    2.390381    0.944991
H      -2.198902    3.650902   -0.975829
H      -0.446238    3.795287   -0.813792
H      -0.095017    0.938402   -2.421777
H      -0.061995    1.975506   -3.880679
H       2.018250    0.789935   -1.712797
H       2.906601    2.292119   -1.400308
H       1.249345    2.920591    0.354235
H       2.043052    1.361634    0.685494
