22

C       0.038369    1.631891    0.109935
C      -0.108971    0.116829   -0.078851
C       0.667111   -0.458179   -1.273190
C       0.258489    0.173784   -2.600855
C       2.191238   -0.560215   -1.002189
O       2.106705   -1.978801   -0.772514
C       0.755319   -2.020886   -1.286733
C      -0.159273   -2.899492   -0.457451
H       1.091160    1.926597    0.183929
H      -0.406677    2.194002   -0.716228
H      -0.457617    1.954268    1.030471
H       0.231876   -0.384218    0.834437
H      -1.172818   -0.132126   -0.187053
H       0.485478    1.244144   -2.627598
H       0.786514   -0.294626   -3.437681
H      -0.817626    0.059841   -2.778434
H       2.822168   -0.322010   -1.870626
H       2.579330   -0.027086   -0.125816
H       0.761540   -2.393292   -2.324023
H      -0.204673   -2.577203    0.585263
H      -1.173578   -2.901315   -0.871390
H       0.212430   -3.929179   -0.476292
