16

O      -0.108246   -0.018741    0.408354
C      -0.099503    1.155338    0.155381
C      -1.389103    2.023206   -0.051827
C      -1.261642    2.866289    1.196404
C      -0.092728    3.511348    1.306642
C       0.991780    3.207068    2.336512
C       1.823769    2.680490    1.114300
C       0.908173    3.373077    0.160989
N       1.080717    1.939239    0.052829
H      -1.317079    2.589710   -0.984644
H      -2.269379    1.383143   -0.073841
H      -1.828324    2.568987    2.074588
H       1.532393    4.076020    2.728250
H       0.734726    2.526861    3.151657
H       2.904572    2.603682    1.090442
H       1.117224    4.028560   -0.675902
