21

C      -0.077786    1.708775    0.111964
C       0.000707    0.181562    0.021636
C      -1.357214   -0.472753   -0.245884
C      -2.024179   -0.062202   -1.555046
O      -3.182721   -0.868755   -1.709289
C       1.171989   -0.288666   -0.916309
C       1.984851   -0.620762    0.342285
O       3.137619   -0.871675    0.542421
C       0.765241   -0.423960    1.252185
H       0.895848    2.136762    0.375314
H      -0.383450    2.157685   -0.838427
H      -0.795864    2.020155    0.878742
H      -1.238380   -1.563291   -0.266226
H      -2.043988   -0.251367    0.580927
H      -2.288012    1.005998   -1.534219
H      -1.322891   -0.208181   -2.393601
H      -3.637306   -0.593304   -2.510563
H       0.936905   -1.193318   -1.488510
H       1.612857    0.446560   -1.595317
H       0.911203    0.218124    2.125333
H       0.357138   -1.383098    1.590007
