19

C       0.639105   -0.338469    1.305295
N       0.085334   -0.141698   -0.029272
C       1.018438   -0.549782   -1.073786
C      -1.256628   -0.684654   -0.158787
C      -2.013615   -0.176164   -1.415108
C      -2.133032    1.273953   -1.446398
C      -2.251582    2.468952   -1.468054
C      -1.282088   -2.173211   -0.143066
N      -1.238213   -3.328666   -0.129491
H       1.583052    0.207936    1.384094
H      -0.049113    0.064891    2.054546
H       0.834372   -1.397731    1.547582
H       1.222970   -1.634101   -1.077613
H       0.642948   -0.262774   -2.058823
H       1.964407   -0.024242   -0.919055
H      -1.823041   -0.348173    0.716571
H      -1.516401   -0.540337   -2.320176
H      -3.008435   -0.636453   -1.413364
H      -2.350316    3.525989   -1.492218
