21

C      -0.010349    1.547344    0.023415
C      -0.019411    0.011704    0.038626
C       0.783237   -0.540613    1.225727
C      -1.437119   -0.527763    0.037576
C      -2.578019   -0.290088   -0.984673
N      -3.259643   -1.227410    0.025593
C      -1.929106   -1.997256   -0.003550
C      -2.569598   -0.354593    1.087930
H       1.013485    1.932141   -0.019118
H      -0.554032    1.943829   -0.839935
H      -0.479213    1.951246    0.928183
H       0.458136   -0.340305   -0.887881
H       0.345986   -0.219296    2.178165
H       0.805972   -1.634975    1.221011
H       1.817517   -0.183333    1.198776
H      -3.035295    0.702548   -1.032180
H      -2.474758   -0.726609   -1.982894
H      -1.775361   -2.566557   -0.925462
H      -1.771031   -2.623520    0.879338
H      -2.460849   -0.853870    2.055056
H      -3.026063    0.633028    1.200561
