23

C       0.037508    1.549311   -0.170936
C       0.059884    0.021033   -0.048798
C      -1.333158   -0.586342    0.062435
C      -2.280195   -0.593151   -1.180462
C      -2.673128   -2.071998   -0.888183
C      -1.915361   -3.115583   -1.740614
C      -0.709007   -3.043324   -0.752674
C      -1.544025   -2.120471    0.192533
O      -1.823632   -2.633648    1.468001
H       1.048972    1.958358   -0.258252
H      -0.527081    1.866915   -1.054232
H      -0.434943    2.007947    0.704698
H       0.580789   -0.401106   -0.917718
H       0.653324   -0.264432    0.831269
H      -1.861352   -0.134073    0.910833
H      -3.099158    0.128165   -1.148132
H      -1.755718   -0.468747   -2.134035
H      -3.718416   -2.257749   -0.641473
H      -2.394631   -4.097684   -1.742048
H      -1.714655   -2.829161   -2.776871
H      -0.465786   -3.998019   -0.280519
H       0.209763   -2.610590   -1.156140
H      -0.995536   -2.688966    1.958338
