17

C      -0.031262    1.531813    0.036323
C      -0.051230    0.011255   -0.076748
N       0.843742   -0.435613   -1.136643
C       0.895894   -1.806334   -1.409245
C       1.422426   -2.425722   -2.531087
N       1.298839   -3.765105   -2.316106
N       0.734410   -4.066394   -1.142554
C       0.481783   -2.881725   -0.582843
H       0.983647    1.893411    0.225541
H      -0.392739    2.001126   -0.886442
H      -0.678401    1.866316    0.851781
H       0.293457   -0.429861    0.866453
H      -1.086343   -0.342243   -0.227883
H       0.738705    0.120784   -1.974935
H       1.863255   -2.026991   -3.430436
H       1.576475   -4.510185   -2.930869
H       0.016104   -2.839544    0.389558
