16

O      -0.018136    1.330301    0.040401
N       0.031087   -0.056037    0.036663
C      -1.117777   -0.618333    0.037630
C      -1.145004   -2.129050    0.012393
C      -2.241347   -2.662498   -0.872904
C      -3.250324   -1.924392   -1.329874
C      -3.440015   -0.465587   -1.010248
C      -2.453282    0.088914    0.012704
O      -2.726902    1.013600    0.738147
H       0.915008    1.566452   -0.006915
H      -0.162160   -2.493022   -0.304701
H      -1.289104   -2.511086    1.035721
H      -2.183458   -3.717078   -1.128224
H      -4.006516   -2.378210   -1.965175
H      -3.326088    0.140818   -1.923227
H      -4.452269   -0.255809   -0.645938
