17

O      -0.207350    0.073453    0.346545
C      -0.104716    1.247744    0.118224
N      -1.026797    2.232629   -0.168891
C      -0.063984    3.347232   -0.112864
C       0.013580    4.175478    1.164868
C      -0.184121    3.476408    2.462036
N       1.172586    3.758986    1.991931
C       1.842752    2.624405    1.316306
C       1.060118    2.272690    0.038275
H      -2.031176    2.229255   -0.058139
H      -0.066372    3.967886   -1.011142
H      -0.157173    5.245299    1.087797
H      -0.488932    4.041640    3.338699
H      -0.544337    2.450507    2.443112
H       2.855471    2.949305    1.060028
H       1.931574    1.773130    1.998661
H       1.697332    2.114377   -0.833016
