21

O      -0.058857    1.429184    0.007075
C       0.005054    0.011649    0.091424
C      -1.417939   -0.521940   -0.017647
C      -1.483028   -2.043274   -0.036437
O      -0.912386   -2.546501    1.177325
C      -1.427688   -3.853324    1.412424
C      -2.835633   -3.843634    0.842703
C      -3.670110   -2.637073    1.187298
C      -2.873923   -2.660470   -0.093731
H       0.824954    1.776649    0.156752
H       0.621370   -0.406881   -0.722327
H       0.448481   -0.317332    1.041146
H      -2.013263   -0.136973    0.816747
H      -1.866583   -0.137565   -0.941409
H      -0.903727   -2.419412   -0.899675
H      -0.818855   -4.618930    0.903756
H      -1.375144   -4.033361    2.491602
H      -3.311156   -4.786299    0.599395
H      -4.746572   -2.734140    1.103027
H      -3.333948   -1.995215    1.995395
H      -3.384162   -2.699913   -1.048800
