21

C       0.138357    1.577676    0.028355
C       0.030323    0.050128   -0.001031
C       0.699021   -0.602667   -1.221469
N       2.145065   -0.342583   -1.361175
C       1.688315   -1.619416   -0.771477
C       1.671861   -1.647789    0.743878
C       0.667323   -0.645381    1.211664
N       2.097506   -0.410433    1.403572
C       2.580198   -0.565406    2.767820
H       1.190569    1.868420    0.050120
H      -0.328499    2.023908   -0.856029
H      -0.357677    1.991316    0.912747
H      -1.028130   -0.242384   -0.021034
H       0.109214   -0.733472   -2.124615
H       2.414694   -0.507795   -2.328686
H       1.857822   -2.545154   -1.311155
H       1.822836   -2.591958    1.259620
H       0.060274   -0.821041    2.098020
H       2.053123   -1.347967    3.342516
H       3.645613   -0.816157    2.747979
H       2.462774    0.383897    3.300577
