16

O      -0.127091    1.436907   -0.253564
C       0.034446    0.065292    0.082495
C      -1.343343   -0.566383    0.004433
C      -2.035464   -0.786147   -1.395236
C      -1.087074   -2.018554   -1.595690
C      -1.504134   -2.128960   -0.086569
C      -2.907892   -1.787623   -0.622488
O      -4.043468   -2.126647   -0.505516
H       0.716409    1.880611   -0.124383
H       0.759794   -0.421881   -0.582325
H       0.410243   -0.051572    1.111595
H      -1.985980   -0.081395    0.744944
H      -2.317120   -0.028317   -2.121410
H      -1.434478   -2.808037   -2.264434
H      -0.041017   -1.782920   -1.782251
H      -1.201897   -2.878081    0.642379
