18

C      -0.129780    2.072280   -2.462041
C      -0.357000    0.749719   -1.749666
N       0.409050   -0.482383   -2.177784
C       1.783834   -0.421743   -1.660377
C       2.664828    0.796498   -1.454047
O       3.109508    1.386842   -2.664111
C       0.697805   -0.816665   -0.715813
C      -0.034171    0.429248   -0.271370
O      -0.385912    0.866744    0.784805
H       0.925491    2.296408   -2.616850
H      -0.609716    2.051728   -3.445255
H      -0.589067    2.879625   -1.882314
H      -1.417048    0.474380   -1.844859
H       2.344604   -1.274478   -2.047122
H       2.151474    1.588205   -0.904884
H       3.514595    0.478586   -0.828962
H       3.496159    0.699629   -3.217032
H       0.607795   -1.811177   -0.293502
