16

N      -0.163017    1.318590   -0.288189
C      -0.014422    0.115143    0.073047
C      -1.171966   -0.859623   -0.042895
C      -1.097868   -1.971915    0.954369
C       0.089512   -2.390518    1.403889
C       1.343848   -1.721122    0.920782
O       1.158105   -0.338991    0.589409
C       0.199632   -3.504297    2.357326
O       1.247702   -3.925698    2.792205
H       0.707676    1.836955   -0.155451
H      -2.098464   -0.287843    0.030792
H      -1.164095   -1.288149   -1.057515
H      -2.018038   -2.442037    1.292832
H       2.111494   -1.748407    1.696837
H       1.748938   -2.247247    0.044544
H      -0.775374   -3.947588    2.658243
