20

C      -0.191898    1.585869   -0.034618
C       0.014493    0.082123    0.018878
C       1.252970   -0.587418   -0.604838
C       2.171269   -0.101859    0.583304
C       3.197912   -1.201726    0.806547
C       2.910898   -2.180620    1.928002
C       2.303070   -2.391155    0.567840
N       0.973311   -1.820290    0.277168
C       0.807915   -0.581064    1.167276
H       0.718239    2.150053    0.185902
H      -0.537845    1.890209   -1.028469
H      -0.957949    1.895201    0.684910
H      -0.908469   -0.459188   -0.207528
H       1.523275   -0.700235   -1.657805
H       2.492081    0.936593    0.676189
H       4.197055   -1.106036    0.398498
H       3.716466   -2.857202    2.196737
H       2.294326   -1.883832    2.768751
H       2.574993   -3.250474   -0.032875
H       0.509050   -0.671416    2.213353
