20

N      -0.016836    1.277874    0.553207
C       0.060013    0.107754   -0.123696
O       1.076071   -0.309482   -0.651830
C      -1.240543   -0.708424   -0.172519
O      -2.275359    0.081172    0.427853
C      -1.606698   -1.117814   -1.631275
C      -1.984835   -2.623237   -1.589537
C      -2.114307   -2.968388   -0.093237
C      -1.066812   -2.056947    0.561313
H       0.802550    1.858367    0.609937
H      -0.892961    1.575727    0.945632
H      -3.044950   -0.478952    0.565633
H      -2.434427   -0.485944   -1.964417
H      -0.758884   -0.940033   -2.294262
H      -2.892861   -2.846323   -2.156052
H      -1.178946   -3.219377   -2.029663
H      -3.121937   -2.726800    0.274840
H      -1.952642   -4.028298    0.120633
H      -0.061049   -2.433282    0.349760
H      -1.172146   -1.939983    1.643564
