14

O      -0.040468   -0.025038   -0.078332
C      -0.030701    1.157316    0.065326
C      -1.105695    2.250872    0.189470
N      -0.024812    3.181110    0.598562
C      -0.027050    4.494254   -0.014205
C       1.104940    5.303000    0.451817
N       2.007387    5.933756    0.799935
C       1.054647    2.234263    0.217310
H      -1.559891    2.475957   -0.789739
H      -1.899504    2.103931    0.928150
H       0.012821    4.460880   -1.121019
H      -0.954627    5.011839    0.255527
H       1.826176    2.078235    0.976310
H       1.539465    2.456063   -0.747347
