14

C       0.008148    1.504332   -0.009292
C      -0.003836    0.002052    0.009436
N       0.103890   -0.631636   -1.160547
C       0.091756   -1.968801   -1.128147
C      -0.027499   -2.686169    0.066931
N      -0.135210   -2.059740    1.236128
C      -0.122897   -0.728823    1.201387
C       0.206601   -2.672422   -2.377484
N       0.296665   -3.274646   -3.360786
H       0.937715    1.870595   -0.455490
H      -0.814350    1.882480   -0.623965
H      -0.085783    1.918589    0.996981
H      -0.035008   -3.771782    0.068797
H      -0.210698   -0.213790    2.154683
