14

N       0.041464    1.417411    0.033801
C      -0.024904    0.027209    0.017163
C      -1.144597   -0.716065    0.086343
N      -1.074735   -2.108651    0.123663
C       0.087788   -2.825558    0.122706
O       0.165840   -4.022091    0.173997
O       1.227290   -2.056074    0.051886
C       1.258047   -0.674846   -0.029485
N       2.355352   -0.051417   -0.143176
H       0.952301    1.740950   -0.268361
H      -0.715681    1.889858   -0.438198
H      -2.140967   -0.296449    0.120264
H      -1.915131   -2.660058    0.175206
H       3.148129   -0.691703   -0.164855
