21

C      -0.057261    1.480976    0.120782
C       0.048564   -0.045895    0.011292
O      -1.252140   -0.642372   -0.030643
C       0.772406   -0.486585   -1.228213
C       1.941169   -1.134880   -1.273444
C       2.333276   -1.498970   -2.664004
C       1.385659   -2.462455   -3.356365
C       1.200653   -0.978928   -3.537088
C       0.212750   -0.253694   -2.623735
H       0.936072    1.939008    0.149270
H      -0.610101    1.893739   -0.727991
H      -0.583399    1.764109    1.040591
H       0.604923   -0.420144    0.885606
H      -1.761300   -0.285305    0.704382
H       2.524578   -1.417639   -0.403324
H       3.373264   -1.470056   -2.970306
H       1.767517   -3.015636   -4.208569
H       0.682923   -3.009706   -2.735894
H       1.404225   -0.562825   -4.516682
H      -0.810437   -0.636040   -2.710267
H       0.165199    0.817606   -2.862257
