12

N      -0.158145   -1.241742   -0.096460
C      -0.079444   -0.090699   -0.057776
C      -0.001334    1.373218    0.048928
C      -0.513240    1.905146    1.456552
N       0.659456    2.539527    2.045382
C       1.603188    2.418422    1.219141
O       1.384499    1.775024    0.028764
C      -0.702412    2.006766   -1.076976
N      -1.278634    2.530510   -1.929178
H      -1.325470    2.624201    1.330580
H      -0.867317    1.081515    2.080160
H       2.617922    2.777536    1.338126
