14

C      -0.005366    1.494973    0.033995
C      -0.012442   -0.018490   -0.022521
O       0.686158   -0.495379    1.153531
C       0.799026   -1.801697    1.305427
C       1.413336   -2.488142    2.329734
N       1.265090   -3.808335    2.036431
N       0.647497   -4.020102    0.980008
O       0.296269   -2.635082    0.425723
H       1.017990    1.879487    0.035590
H      -0.525109    1.896489   -0.840461
H      -0.512988    1.853212    0.933488
H      -1.028908   -0.424567   -0.015531
H       0.499130   -0.398220   -0.912598
H       1.921209   -2.126222    3.204697
