18

O       0.028759   -0.019831   -0.281435
C       0.009669    1.175510   -0.078879
C      -1.291389    1.951109    0.088798
C      -1.284332    3.187237   -0.829844
C      -0.168204    4.171420   -0.446933
C       1.188863    3.499304   -0.219121
C       1.525273    2.925316    1.119504
C       1.262169    1.982195   -0.049521
H      -2.114589    1.270369   -0.139368
H      -1.403731    2.268247    1.134602
H      -1.140793    2.854016   -1.865300
H      -2.256634    3.690056   -0.795194
H      -0.066883    4.925594   -1.233812
H      -0.461388    4.715431    0.459734
H       2.018681    3.929615   -0.770451
H       2.546966    2.976563    1.478184
H       0.775599    2.983709    1.902074
H       2.121703    1.455240   -0.447944
