16

N       0.339116    0.773545    1.127561
C       0.136117   -0.113911    0.261741
O      -1.085626   -0.747886    0.268662
C      -1.342953   -1.663142   -0.713583
O      -0.608955   -1.898777   -1.634148
C      -2.665574   -2.358706   -0.426258
C      -3.165448   -3.312406   -1.524203
C      -2.879243   -4.423533   -0.494090
O      -2.429408   -3.455443    0.488772
H       1.278520    1.153663    1.019088
H       0.798166   -0.478637   -0.523534
H      -3.381643   -1.638101   -0.017184
H      -4.211510   -3.183436   -1.801331
H      -2.538053   -3.325217   -2.414686
H      -3.751328   -4.978921   -0.132359
H      -2.085286   -5.129578   -0.759828
