12

O       0.079296   -0.064942   -0.001817
C       0.004249    1.144013    0.009505
C       1.194352    1.996756    0.003451
C       1.376531    3.382372    0.013379
C       2.780794    3.555970   -0.001059
N       3.412323    2.385051   -0.018145
N       2.439349    1.469709   -0.015133
C       0.369197    4.375198    0.033316
N      -0.454337    5.189153    0.049618
H      -0.962060    1.681866    0.025005
H       3.336720    4.480508    0.000605
H       2.653407    0.483192   -0.026057
