19

C       0.002226    1.449021    0.071722
N      -0.002097    0.010400    0.050684
C      -1.084855   -0.973382    0.046568
C       0.013580   -2.091557    0.019825
C       0.091171   -2.957548    1.275493
C       0.067048   -2.920826   -1.261589
C       1.018083   -0.905439    0.027555
O       2.217352   -0.783450    0.017878
H       1.044826    1.776265    0.066451
H      -0.504080    1.867919   -0.806961
H      -0.486905    1.841865    0.971909
H      -1.709771   -0.952147    0.947527
H      -1.726682   -0.926016   -0.841418
H      -0.724345   -3.688881    1.299406
H       1.038534   -3.504938    1.299571
H       0.032590   -2.351647    2.185341
H      -0.008757   -2.288902   -2.152264
H       1.013693   -3.466921   -1.319532
H      -0.748894   -3.651476   -1.291105
