21

O       0.321576    1.371051    0.234333
C       0.149904   -0.013623    0.047420
C       1.160237   -0.705391   -0.839918
C       1.234323   -0.841339    0.668825
C      -1.275964   -0.512113    0.079123
C      -2.186420   -0.241030    1.329177
C      -3.277987    0.294478    0.390279
C      -2.773589    1.505183   -0.333185
C      -2.349838    0.135426   -0.816452
H      -0.013457    1.807603   -0.556414
H       0.844533   -1.563024   -1.424650
H       1.905115   -0.077045   -1.315238
H       2.022061   -0.298095    1.177440
H       0.967863   -1.791293    1.119501
H      -1.257591   -1.589411   -0.113896
H      -2.456156   -1.157373    1.857926
H      -1.799749    0.483558    2.051425
H      -4.333718    0.064395    0.460503
H      -3.496031    1.999097   -0.975633
H      -2.077911    2.176234    0.160205
H      -2.595559   -0.196270   -1.818982
