19

C      -0.169647    1.215970    0.083454
O       0.840827    1.712259    0.924164
C       2.028216    1.152672    0.391372
C       1.609012   -0.263118   -0.061044
C       2.313831   -0.781513   -1.338308
C       2.565317   -2.292126   -1.113278
C       2.355749   -2.458986    0.371996
C       1.851806   -1.366660    0.940584
O       0.180847   -0.108609   -0.252507
H      -1.120015    1.226114    0.626748
H      -0.251745    1.832269   -0.831748
H       2.390157    1.740504   -0.467978
H       2.794160    1.148913    1.169460
H       1.705137   -0.567346   -2.219134
H       3.269490   -0.260484   -1.461760
H       1.861401   -2.918985   -1.675928
H       3.568444   -2.597142   -1.432304
H       2.575780   -3.387313    0.888506
H       1.578555   -1.250413    1.983205
