18

C      -0.341564    1.458754    0.030102
C       0.025727   -0.024744    0.066570
C       0.735539   -0.495430   -1.218166
C       1.020687   -1.981378   -1.178232
O       0.922228   -2.717588   -2.128071
C       1.428760   -2.540750    0.189424
N       1.595871   -1.517529    1.203248
C       0.885288   -0.348874    1.293513
O       0.964508    0.375609    2.266729
H       0.549473    2.076248   -0.120396
H      -1.042172    1.660602   -0.785395
H      -0.795047    1.760846    0.975287
H      -0.900041   -0.610522    0.175899
H       0.155281   -0.274351   -2.117266
H       1.696822    0.030590   -1.310008
H       0.673420   -3.292776    0.465592
H       2.370555   -3.082712    0.054834
H       2.117434   -1.749396    2.036469
