18

C      -0.034332    1.632534   -0.219538
C       0.103419    0.126030   -0.028867
C      -1.201751   -0.528936    0.409829
C       0.773256   -0.589753   -1.244559
N       2.041394   -1.128742   -0.741737
C       2.092731   -0.797980    0.489221
O       1.088721   -0.094845    1.040316
C       3.251658   -1.173226    1.351560
O       3.349899   -0.887535    2.515896
H       0.927758    2.076410   -0.490852
H      -0.749759    1.846691   -1.020203
H      -0.389348    2.110102    0.697777
H      -1.965074   -0.402935   -0.364915
H      -1.057863   -1.599849    0.579232
H      -1.571252   -0.078797    1.335257
H       0.156941   -1.405776   -1.638900
H       0.968986    0.096794   -2.076186
H       4.016395   -1.748536    0.794737
