18

C       0.048018    1.339536   -0.220388
C      -0.084653   -0.125676    0.108562
C      -0.847443   -0.588246    1.319737
C       0.662468   -0.757277    1.247086
N       1.170522   -2.065369    0.940575
C       1.801713   -2.092596   -0.372819
C       0.765136   -1.766609   -1.441774
O       0.767941   -2.234014   -2.544887
O      -0.222934   -0.907213   -1.072183
H       0.939911    1.526494   -0.827764
H      -0.825381    1.683513   -0.782928
H       0.123666    1.933786    0.694411
H      -1.264854    0.168092    1.975399
H      -1.422639   -1.500587    1.218233
H       1.285601   -0.094779    1.849510
H       1.775537   -2.426755    1.665540
H       2.643580   -1.384505   -0.488104
H       2.178395   -3.092175   -0.596330
