17

O      -0.217561   -0.048995    0.117252
C      -0.012630    1.135216    0.070993
C       1.349788    1.763925   -0.172562
C       1.310767    2.795416   -1.256610
C       2.239230    3.944014   -1.660314
C       2.300522    3.455133   -3.106619
C       0.938343    2.784561   -2.799631
O       0.033611    3.909201   -2.609753
C       0.737744    4.167729   -1.398701
H      -0.836335    1.872421    0.207371
H       1.657964    2.251166    0.764554
H       2.068810    0.964807   -0.381476
H       3.010212    4.414972   -1.063279
H       2.305433    4.188292   -3.918677
H       3.094284    2.717046   -3.246200
H       0.512976    1.979777   -3.395457
H       0.327724    4.871910   -0.686389
