17

C       0.049986    1.540993   -0.008173
C      -0.040146    0.050268    0.190049
N      -0.122773   -0.465650    1.345222
N      -0.021294   -0.663969   -1.032615
C      -0.087815   -2.013689   -1.201308
O      -0.174958   -2.855176   -0.325657
C      -0.039764   -2.408909   -2.698454
C      -0.107276   -3.882531   -2.981662
O       0.046851   -1.546637   -3.543616
H       0.974915    1.812416   -0.529963
H      -0.788442    1.908145   -0.611240
H       0.031478    2.027990    0.965651
H      -0.175361   -1.483476    1.286822
H       0.047299   -0.149414   -1.902613
H      -1.025151   -4.299637   -2.555242
H      -0.067914   -4.057142   -4.056604
H       0.717809   -4.394517   -2.476224
