19

C      -0.026015    1.564875   -0.078873
C       0.042067    0.041486    0.065061
C      -1.334091   -0.606610    0.009037
O      -1.901592   -0.415297   -1.281262
C      -2.914607   -1.379562   -1.429117
O      -2.637328   -2.444002   -0.527286
C      -1.432920   -2.148553    0.142322
C      -0.243712   -2.870819   -0.480819
O      -0.258575   -3.381020   -1.568240
H       0.974468    2.004984   -0.043079
H      -0.489064    1.841080   -1.029467
H      -0.618073    2.011556    0.727445
H       0.664260   -0.379224   -0.732889
H       0.513733   -0.224574    1.019294
H      -1.987008   -0.162068    0.779528
H      -3.904445   -0.967973   -1.175909
H      -2.902256   -1.734833   -2.465510
H      -1.517710   -2.456222    1.192502
H       0.666465   -2.891056    0.163238
