22

C      -0.410917    1.363305   -0.083920
C       0.023561   -0.095611   -0.039640
N       1.235820   -0.420429   -0.808190
C       1.971921   -0.994172    0.315363
C       0.754110   -0.666927    1.241706
C       1.067601    0.341114    2.344418
C       0.063972   -1.905787    1.808573
C       1.459366   -0.578625   -2.131700
O       2.458483   -1.079431   -2.608190
H       0.416131    2.039536    0.146097
H      -0.786535    1.619563   -1.079737
H      -1.220411    1.543750    0.631266
H      -0.826251   -0.730689   -0.325058
H       2.195848   -2.058726    0.187841
H       2.902141   -0.465666    0.549874
H       1.590390    1.222475    1.962600
H       0.156110    0.679978    2.848753
H       1.711250   -0.120176    3.101565
H       0.685906   -2.387494    2.571181
H      -0.892254   -1.642924    2.275378
H      -0.136273   -2.643692    1.024843
H       0.622276   -0.184844   -2.745517
