17

C       0.055563    1.530173   -0.165136
C       0.005893    0.018863    0.011217
C       1.294997   -0.794960   -0.024252
C       0.538391   -0.676510    1.264437
C       1.075373    0.121015    2.443864
C       1.993980   -0.677234    3.257921
N       2.716603   -1.317513    3.892138
C      -1.160404   -0.596146   -0.577975
N      -2.101359   -1.076631   -1.049169
H       0.986349    1.946003    0.226954
H       0.001966    1.786044   -1.226931
H      -0.782969    2.016937    0.341613
H       1.292595   -1.746865   -0.540604
H       2.208982   -0.220679   -0.135430
H      -0.019852   -1.557702    1.562843
H       1.607559    1.017120    2.111218
H       0.251905    0.461368    3.082454
