18

C      -0.106901    1.348622   -0.066270
O       0.031987   -0.054514    0.003492
C       0.705955   -0.525328    1.152237
C      -0.243257   -0.698567    2.336740
C       1.345416   -1.875318    0.699007
C       2.311157   -1.683690   -0.383057
C       3.114811   -1.523026   -1.259322
C       1.971199   -2.578686    1.828709
N       2.452976   -3.120789    2.727596
H       0.871578    1.850548   -0.049508
H      -0.602683    1.570729   -1.013743
H      -0.720610    1.750911    0.752357
H       1.525084    0.158553    1.419644
H       0.286007   -1.064123    3.220194
H      -0.704231    0.259258    2.592075
H      -1.041410   -1.404014    2.084934
H       0.516467   -2.498426    0.335929
H       3.822378   -1.384602   -2.039353
