15

C      -0.437214    1.390905    0.027664
N       0.010402    0.001920    0.021111
C       0.304897   -0.656950   -1.133326
N       0.705860   -1.873076   -1.264041
C       0.866365   -2.628678   -0.102863
O       1.234537   -3.776772   -0.079501
N       0.565846   -1.961973    1.102311
C       0.134909   -0.656926    1.252806
N      -0.143980   -0.027540    2.324245
H       0.254105    2.007160    0.605893
H      -0.479003    1.745219   -1.003164
H      -1.424204    1.466717    0.488211
H       0.174039   -0.052198   -2.029727
H       0.685252   -2.517325    1.937151
H      -0.014891   -0.610579    3.148136
