15

C      -0.170949    1.593008   -0.015330
C       0.007302    0.074955    0.008063
C      -1.279355   -0.586280   -0.212276
N      -2.333404   -1.024913   -0.392325
C       1.210236   -0.646084   -0.700271
C       2.185331   -0.113473    0.375224
C       0.911804   -0.653928    1.066034
O       0.965087   -1.820728    0.161475
H       0.768434    2.122853    0.146066
H      -0.582090    1.908720   -0.978412
H      -0.876628    1.900945    0.761476
H       1.357424   -0.819797   -1.765783
H       3.062019   -0.743431    0.520552
H       2.420407    0.949653    0.419657
H       0.701026   -0.837051    2.119217
