15

O       0.049820    1.405300   -0.080452
C       0.093417    0.031460    0.250973
C      -1.304120   -0.551968    0.230267
N      -1.838330   -0.943120   -1.061942
C      -1.608413   -2.012965   -0.057917
C      -0.512878   -2.986517   -0.410782
O      -0.401827   -4.072741    0.086191
C      -2.746804   -2.570217    0.635198
N      -3.682146   -2.989824    1.169047
H      -0.229959    1.471737   -1.000381
H       0.757401   -0.528188   -0.420321
H       0.503513   -0.031334    1.263508
H      -1.987315   -0.086579    0.938424
H      -2.833528   -0.748222   -1.140339
H       0.176851   -2.602875   -1.188911
