21

C      -0.030026    1.647312    0.017005
C       1.457240    1.208968   -0.095877
C       1.159702    0.221371    1.079653
C       2.078865   -0.947878    1.460043
C       1.927549   -2.242146    0.648121
C       2.213667   -2.070217   -0.818874
C       1.804500   -1.034818   -1.550867
C       0.962602    0.125101   -1.120005
C      -0.044783    0.093127    0.087916
H      -0.315627    2.179170    0.928096
H      -0.476614    2.100535   -0.871656
H       2.332269    1.853559   -0.205635
H       0.887675    0.760862    1.994427
H       3.122837   -0.612490    1.406178
H       1.895427   -1.189848    2.513872
H       2.597731   -3.001220    1.066710
H       0.910760   -2.638267    0.785497
H       2.797293   -2.849714   -1.303287
H       2.083347   -1.015282   -2.602998
H       0.520252    0.582343   -2.012208
H      -0.923960   -0.547057    0.185600
