16

C      -0.089617    1.426577    0.165127
N      -0.055774    0.004928   -0.137627
C      -1.184519   -0.758749   -0.061805
N      -1.256077   -2.050635    0.066737
C      -2.627744   -2.318287    0.012210
C      -3.152780   -3.709127    0.118803
C      -3.300327   -1.157064   -0.137687
O      -2.370771   -0.125931   -0.185225
H       0.884782    1.857177   -0.074726
H      -0.841634    1.915098   -0.457809
H      -0.322415    1.643945    1.217509
H       0.763601   -0.502125    0.159536
H      -2.844846   -4.170205    1.063487
H      -4.244522   -3.723908    0.066963
H      -2.759737   -4.336979   -0.688143
H      -4.333338   -0.868752   -0.214914
