17

C      -0.092584    1.471847    0.151794
C      -0.018500   -0.020494    0.074614
N       0.013634   -0.644737   -1.100133
N       0.088090   -1.955204   -0.791231
C       0.105996   -2.185341    0.541586
C       0.042516   -0.949268    1.153059
C      -0.007907   -0.637184    2.621271
C      -1.428745   -0.267168    3.021815
O      -1.768087    0.810838    3.435032
H       0.817548    1.893595    0.594576
H      -0.210266    1.889547   -0.849925
H      -0.931225    1.801428    0.773483
H       0.128214   -2.629701   -1.535755
H       0.169629   -3.182634    0.949038
H       0.292036   -1.517862    3.202777
H       0.650196    0.194801    2.888818
H      -2.167387   -1.086864    2.865623
