20

O      -0.731689    0.856063    0.874239
C      -0.026555    1.030311   -0.087451
C       1.262850    1.826417   -0.063738
C       1.344756    2.860753   -1.192837
C       2.595660    3.771980   -1.142749
C       2.807144    4.172177   -2.618007
C       2.212740    3.007046   -3.397856
C       2.581942    1.635702   -2.964739
N       1.303839    2.230086   -2.532912
H      -0.287129    0.605798   -1.080471
H       1.354916    2.304954    0.915629
H       2.096068    1.116614   -0.171811
H       0.450302    3.496018   -1.147817
H       2.448172    4.632800   -0.486446
H       3.460124    3.223118   -0.755504
H       2.252609    5.086692   -2.855350
H       3.857886    4.356668   -2.861113
H       1.880015    3.180711   -4.417196
H       2.474685    0.801792   -3.651767
H       3.389768    1.519588   -2.246312
