13

N       0.158874    1.328578    0.166787
C      -0.053749   -0.030707    0.051025
C      -1.184084   -0.803571    0.007981
C      -0.722898   -2.151770   -0.022595
C       0.642915   -2.120310    0.000532
O       1.056592   -0.792231    0.047385
C       1.630604   -3.112121   -0.017518
C       2.474209   -3.974170   -0.033600
H       1.049260    1.628173   -0.207541
H      -0.603243    1.890484   -0.183644
H      -2.203730   -0.454395    0.001916
H      -1.324678   -3.046016   -0.061149
H       3.214574   -4.734575   -0.047918
