17

O      -0.100360    1.356563    0.145932
C       0.046899   -0.019886    0.017638
C       0.863589   -0.773833   -1.020948
C      -0.107518   -1.981534   -0.763516
O       0.406663   -2.886297    0.208244
C       0.502349   -2.178778    1.446008
C      -0.278349   -0.892154    1.225072
O      -0.760902   -0.247516    2.350997
C      -1.090095   -1.031034   -0.043683
H       0.751340    1.725633    0.411188
H       0.715746   -0.351206   -2.019367
H       1.929036   -0.955045   -0.843248
H      -0.433405   -2.552499   -1.630263
H       0.046440   -2.773752    2.246280
H       1.554920   -1.999904    1.705029
H      -0.815109    0.692385    2.127496
H      -2.162378   -0.928566   -0.134606
