17

C       0.001974    1.580197    0.056363
C       0.023773    0.061379    0.014921
C       0.674921   -0.589582   -1.248279
O       1.084693    0.306092   -2.247149
C       1.781833   -1.092099   -0.296626
O       2.829905   -1.650485   -0.445473
N       1.102233   -0.577501    0.811743
C       1.297453   -0.600341    2.182665
N       2.283299   -1.186202    2.725187
H       0.974803    1.990227   -0.221845
H      -0.742009    1.960506   -0.649504
H      -0.263719    1.939924    1.055409
H      -0.960150   -0.355520    0.254443
H       0.071262   -1.410558   -1.658784
H       1.936118   -0.001930   -2.578994
H       0.498738   -0.060911    2.708044
H       2.233317   -1.088371    3.737997
