16

C       0.048741    1.484772    0.051303
C      -0.101472   -0.003712   -0.048689
C      -0.967174   -0.818533    0.829507
N       0.504072   -0.934706    0.972189
C       1.081027   -1.732930   -0.181901
C       0.142557   -2.246976   -1.236099
C       0.526079   -0.791385   -1.223876
H       1.070314    1.791552   -0.199929
H      -0.635460    1.992953   -0.638874
H      -0.168616    1.828675    1.066383
H      -1.408074   -0.310614    1.683155
H      -1.561565   -1.649065    0.466821
H       2.080005   -2.125785   -0.042996
H       0.653804   -2.821019   -2.003779
H      -0.863931   -2.599917   -1.041879
H       1.026468   -0.303496   -2.050091
