15

C      -0.008578   -1.208038   -0.017842
C      -0.023896   -0.007972    0.000649
C      -0.019578    1.462095    0.012455
N      -0.568524    2.007435    1.266157
C       0.219501    3.177101    1.682331
C       1.501948    3.000353    0.919840
C       1.389960    2.054761   -0.003029
C      -0.764756    1.951627   -1.183699
N      -1.363030    2.374592   -2.078221
H      -0.001953   -2.270360   -0.027391
H      -1.563544    2.177971    1.209020
H      -0.251698    4.141663    1.430132
H       0.372646    3.169026    2.769424
H       2.385822    3.594992    1.112617
H       2.129088    1.715276   -0.714249
