15

O      -0.621927    0.480621    0.669441
C       0.141093    0.861182   -0.183774
C       1.201402    1.907582    0.037275
C       1.486336    2.438032    1.435108
C       2.245103    1.122315    1.788806
C       3.522221    1.843775    2.225890
C       2.979773    2.631151    1.031663
N       2.607731    1.318675    0.282019
H       0.118288    0.432667   -1.211168
H       1.209354    2.621578   -0.797412
H       0.874252    3.060576    2.092625
H       1.816218    0.184087    2.136955
H       3.497181    2.342539    3.197574
H       4.461136    1.307663    2.065654
H       3.414968    3.465011    0.477805
