17

C      -0.001135    1.451061    0.011005
N       0.011214   -0.000310    0.004836
C      -0.002580   -0.811428   -1.094905
C       0.017406   -2.104719   -0.616211
C       0.012130   -3.310071   -1.441310
O       0.029333   -4.450266   -1.040390
N       0.043270   -2.093142    0.764647
C       0.039056   -0.830668    1.111348
C       0.060915   -0.311177    2.508900
H       0.893551    1.847185    0.500736
H      -0.023144    1.812250   -1.017823
H      -0.883888    1.831946    0.533398
H      -0.024802   -0.412293   -2.096580
H      -0.010322   -3.084533   -2.534321
H       0.943146    0.310232    2.702746
H      -0.823861    0.295168    2.735997
H       0.080979   -1.162601    3.189440
