14

C       0.192027    1.484817    0.089379
C      -0.019282    0.021880    0.002861
C      -1.117159   -0.778342   -0.193855
O      -2.385598   -0.369997   -0.371022
N      -0.759146   -2.092338   -0.188776
C       0.534023   -2.076134    0.008127
O       1.043186   -0.823666    0.132388
C       1.488284   -3.182274    0.111507
O       1.193025   -4.349642    0.022860
H       0.876797    1.841077   -0.688487
H      -0.766788    1.991775   -0.037629
H       0.610839    1.776385    1.059167
H      -2.926036   -1.161890   -0.483120
H       2.528917   -2.835882    0.282505
