19

O      -0.637190    1.274457    0.888087
C      -0.101386    0.139808    0.211197
C       0.777451   -0.748893    1.129357
C       0.050112   -2.110562    1.243577
C      -1.438576   -1.783569    0.981326
C      -2.118771   -1.249691    2.155448
C      -2.678593   -0.824276    3.130926
C      -1.318943   -0.743181   -0.177051
O      -2.472451   -0.017142   -0.479819
H       0.066975    1.912164    1.031888
H       0.434941    0.467085   -0.688530
H       1.799427   -0.859909    0.757101
H       0.830129   -0.265596    2.109062
H       0.398871   -2.796297    0.463543
H       0.211253   -2.598753    2.206316
H      -1.986035   -2.664879    0.630935
H      -3.177299   -0.444534    3.987786
H      -1.054913   -1.312645   -1.076307
H      -2.493366    0.720950    0.143720
