17

C       0.109877    1.419330    0.265262
C      -0.229095   -0.056074    0.015326
O      -0.095745   -0.837895    1.192015
C      -1.696551   -0.239379   -0.436277
O      -2.587881    0.372363    0.471942
C      -3.033102   -0.377855    1.511597
N      -3.701508    0.172919    2.425448
C       0.643478   -0.604629   -1.053155
N       1.324448   -1.035629   -1.881296
H       1.141106    1.517302    0.618270
H       0.012432    2.003568   -0.653566
H      -0.573964    1.817761    1.016283
H       0.736852   -0.613060    1.621856
H      -1.845531    0.243228   -1.404668
H      -1.900984   -1.311589   -0.538996
H      -2.764130   -1.437090    1.430092
H      -3.992439   -0.521843    3.109973
