17

O       0.196792    1.277975    0.550757
C       0.102415   -0.016458    0.009993
C       0.960352   -0.308506   -1.181450
C       1.274747   -0.953271    0.153628
C      -1.300581   -0.560489    0.071460
C      -2.255151   -0.335300   -1.034798
O      -1.634480   -1.600870   -0.851273
C      -1.882835   -0.750383    1.451960
O      -2.955592   -1.249548    1.665575
H       0.422187    1.205455    1.483940
H       0.549117   -0.939193   -1.960105
H       1.603471    0.498992   -1.509848
H       2.137897   -0.585894    0.698428
H       1.073982   -2.013089    0.266937
H      -3.318196   -0.309517   -0.807144
H      -1.916905    0.237613   -1.895941
H      -1.238090   -0.387759    2.283976
