18

C      -0.108147    1.515043   -0.109240
C      -0.070140    0.021272   -0.067820
C       0.850141   -0.966119   -0.822497
O       1.894437   -0.968585    0.260300
C       0.613159   -0.922324    0.954841
C      -0.121097   -0.866630    2.266510
C      -1.547709   -0.854826    1.544114
N      -1.287094   -0.881639    0.045970
C      -0.128928   -1.846407   -0.030780
H       0.913444    1.907914   -0.085946
H      -0.597537    1.870078   -1.021539
H      -0.652775    1.925782    0.747708
H       1.221855   -1.003621   -1.845350
H       0.019493   -1.740291    2.906510
H       0.062713    0.039873    2.848361
H      -2.140362   -1.731921    1.813928
H      -2.123696    0.038684    1.794931
H      -0.236468   -2.930181   -0.001510
