19

C       0.291964    1.750561   -0.840298
C       0.090988    0.326088   -0.339944
C       0.815372   -0.826786   -1.043179
C       2.268743   -0.769026   -0.823194
N       1.429103   -1.355718    0.248611
C       0.783590   -0.193838    0.961584
C       1.685362    0.715376    1.785311
N       2.837829    0.123882    2.203844
O       1.367921    1.855282    2.070325
H       1.348954    1.996931   -0.972502
H      -0.209755    1.886028   -1.804845
H      -0.118975    2.467263   -0.125845
H      -0.979981    0.116124   -0.275931
H       0.365302   -1.501657   -1.764222
H       2.881232   -1.515951   -1.318563
H       2.766979    0.181413   -0.652377
H       0.042424   -0.597008    1.658943
H       3.027705   -0.841210    1.990032
H       3.438184    0.624834    2.837706
