14

C      -0.001813    1.559821   -0.098271
C       0.033445    0.043076    0.152964
O       0.653419   -0.237571    1.378308
C      -1.353270   -0.580587    0.132493
O      -1.791929   -1.197725    1.069712
C      -2.222597   -0.407015   -1.139542
F      -3.125265   -1.370653   -1.238791
F      -2.857760    0.772396   -1.084248
F      -1.461081   -0.414323   -2.242884
H       1.017407    1.941193   -0.006550
H      -0.375919    1.796620   -1.096719
H      -0.625123    2.059021    0.648366
H       0.593230   -0.430029   -0.672073
H       0.028758   -0.773532    1.889547
