22

C      -0.130692    1.583318    0.009434
C      -0.047996    0.055077   -0.004225
C       0.741538   -0.490974   -1.199015
C       0.780109   -2.021496   -1.260185
O      -0.530440   -2.584986   -1.322351
C       1.652082   -2.531586   -2.415536
C       1.706908   -4.070990   -2.448666
C       2.455152   -4.584029   -3.592440
N       3.049857   -4.971638   -4.504529
H       0.866140    2.036432    0.051087
H      -0.626656    1.962490   -0.891225
H      -0.695537    1.942541    0.875020
H       0.420534   -0.296969    0.924207
H      -1.054210   -0.377259   -0.016935
H       0.305930   -0.112362   -2.137014
H       1.771078   -0.110558   -1.171222
H       1.189538   -2.404050   -0.315088
H      -0.982478   -2.192885   -2.078847
H       1.250072   -2.161561   -3.367328
H       2.664912   -2.125413   -2.323126
H       2.167754   -4.453314   -1.530144
H       0.687370   -4.467954   -2.475180
