15

O       0.033026    0.009891   -0.103599
C      -0.001472    1.192574    0.047203
C      -1.098150    2.280079    0.022928
C      -1.309774    2.872128    1.414867
N      -0.005934    3.107092    2.027029
C       1.193561    2.929073    1.389354
O       2.270132    3.170282    1.887428
C       1.010510    2.356318   -0.020431
N      -0.091361    3.156589   -0.681050
H      -2.040024    2.088480   -0.493191
H      -1.867940    3.812724    1.325419
H      -1.900103    2.175654    2.023198
H       0.042252    3.546743    2.934125
H       1.963474    2.263796   -0.537149
H      -0.097049    2.919235   -1.671909
