14

O       0.074361    0.034367   -0.181516
C       0.020996    1.223233   -0.017730
C      -1.217498    2.106046    0.107664
O      -0.750485    3.357878    0.588514
C       0.582969    3.561996    0.118189
C       1.197088    2.175645    0.095183
C       2.457667    1.752866    0.726031
O       2.350591    1.899267   -0.687146
H      -1.698247    2.194857   -0.881498
H      -1.948317    1.698494    0.810672
H       0.591011    3.989654   -0.896928
H       1.072915    4.261695    0.798324
H       3.064766    2.499995    1.235301
H       2.550214    0.727275    1.078594
