15

C      -0.195695    1.419004   -0.052402
C       0.043023   -0.077039    0.089064
C       0.913851   -0.798421   -0.985575
O       1.859705   -1.204231    0.069352
C       1.141928   -0.523040    1.032907
N       1.376609   -0.343076    2.249771
C       0.338757   -1.917155   -1.699196
C      -0.158308   -2.832813   -2.297755
H       0.736539    1.951460   -0.264846
H      -0.905549    1.628267   -0.858416
H      -0.604899    1.819622    0.878891
H      -0.891787   -0.611502    0.274799
H       1.416986   -0.108940   -1.671213
H       2.245758   -0.795387    2.538065
H      -0.590924   -3.645914   -2.827206
