20

C      -0.028516    1.562921    0.083444
C      -0.077746    0.037686   -0.060973
C       0.696617   -0.492163   -1.273241
O       0.207810    0.042741   -2.489605
C       2.251032   -0.496530   -1.084095
C       2.164726   -1.994225   -0.683707
C       0.756235   -2.036612   -1.335285
O      -0.294992   -2.702839   -0.677072
H       0.999535    1.936863    0.146470
H      -0.521300    2.068595   -0.755435
H      -0.550486    1.882092    0.990197
H       0.319728   -0.429507    0.846679
H      -1.115791   -0.297318   -0.149273
H       0.223905    1.003234   -2.427159
H       2.750603   -0.349590   -2.044423
H       2.673233    0.193711   -0.350167
H       2.925475   -2.671569   -1.077474
H       2.092899   -2.128997    0.398769
H       0.823240   -2.331025   -2.391112
H      -0.214221   -3.645238   -0.850721
