18

C       0.039073    1.492945   -0.247667
C       0.020650    0.028669    0.202073
C      -1.361846   -0.610874    0.092794
O      -1.910167   -0.585954   -1.261797
C      -2.186605   -1.994017   -1.197736
C      -0.916744   -2.767930   -1.094218
C      -1.521001   -2.142514    0.147869
C      -2.317598    0.041327    1.007377
N      -3.051307    0.542811    1.745951
H       1.052281    1.898624   -0.183755
H      -0.301761    1.580316   -1.282765
H      -0.612197    2.109845    0.378709
H       0.710206   -0.562847   -0.407150
H       0.352014   -0.060697    1.243570
H      -3.131918   -2.340786   -1.594992
H      -1.022739   -3.848032   -1.126117
H      -0.009895   -2.381831   -1.548289
H      -1.809027   -2.702158    1.025905
