21

C       0.074627    1.643102    0.060602
C       0.076016    0.113155   -0.009268
C      -1.331801   -0.490074    0.045196
C      -2.143186   -0.152474   -1.204251
O      -3.344782   -0.096813   -1.246487
C      -1.301891   -2.034714    0.131048
O      -0.352506   -2.660679   -0.275907
C      -2.534151   -2.680789    0.735401
C      -2.575158   -4.198011    0.573654
H       1.094645    2.036146    0.020367
H      -0.483517    2.089110   -0.770406
H      -0.383716    1.998247    0.990123
H       0.567483   -0.230980   -0.925793
H       0.668220   -0.300480    0.813130
H      -1.907478   -0.115376    0.899267
H      -1.524365    0.006471   -2.115943
H      -2.548154   -2.396902    1.798262
H      -3.416499   -2.191579    0.303293
H      -2.607221   -4.478109   -0.482872
H      -1.684876   -4.660410    1.006520
H      -3.458859   -4.613599    1.065218
