20

C      -0.237493    1.401452    0.040442
N      -0.017643   -0.036425    0.112125
C       1.357581   -0.503974   -0.140696
C       0.765405   -0.547696    1.213464
C       1.303704    0.117310    2.461838
C       0.386323   -0.331097    3.615752
C      -0.700905   -1.225051    3.014249
C       0.414177   -1.766562    2.076052
C       1.483166   -1.236881    3.120527
H       0.611879    1.999496    0.409659
H      -0.427896    1.687683   -0.999006
H      -1.120223    1.663455    0.632635
H       1.448922   -1.400985   -0.748909
H       2.122072    0.250436   -0.328691
H       1.946072    0.982638    2.557327
H       0.357135    0.230765    4.540848
H      -1.029955   -1.980969    3.732490
H      -1.569069   -0.761756    2.532468
H       0.360335   -2.762236    1.642112
H       2.344024   -1.681986    3.595909
