15

N       0.030873    1.392430    0.136965
C      -0.029014    0.013353    0.050541
C      -1.237061   -0.623324    0.029635
C      -1.565465   -2.041437    0.012578
O      -2.741173   -2.399083    0.018304
C      -0.506326   -3.062725   -0.028593
C       0.840751   -2.946005   -0.038304
N       1.663775   -1.842813   -0.002986
C       1.289897   -0.615761    0.039888
H       0.868651    1.843050   -0.195999
H      -0.815086    1.902221   -0.063618
H      -2.129639   -0.000423    0.036005
H      -0.913233   -4.070456   -0.057199
H       1.410967   -3.872210   -0.075306
H       2.111597    0.107642    0.076431
