19

C      -0.068427    1.534759   -0.051001
C      -0.006741    0.019653    0.000190
C      -1.228093   -0.770413    0.512182
O      -0.407221   -1.535290    1.419746
C       0.723030   -0.672459    1.192612
C       2.014945   -1.405940    0.879473
O       2.041688   -1.909252   -0.446054
C       1.722896   -0.897766   -1.356923
O       0.377941   -0.502986   -1.272105
H       0.918208    1.958033   -0.267348
H      -0.751259    1.853602   -0.844377
H      -0.417303    1.950101    0.899254
H      -1.973421   -0.165618    1.045512
H      -1.715060   -1.396386   -0.240733
H       0.878914    0.004132    2.045764
H       2.864123   -0.719173    1.037579
H       2.127410   -2.260019    1.553123
H       2.394767   -0.030726   -1.205306
H       1.860270   -1.304107   -2.360583
