17

C       0.003642    1.395537    0.635056
C       0.066170   -0.015622    0.088622
O       1.101205   -0.532745   -0.258971
C      -1.274390   -0.751217   -0.022723
C      -1.098651   -2.244155   -0.176531
O      -1.252703   -3.048394    0.983933
C      -2.204063   -3.228828   -0.072408
C      -3.602494   -2.799428    0.228767
O      -4.564023   -3.210288   -0.368773
H       0.972790    1.882651    0.523812
H      -0.772798    1.977967    0.127119
H      -0.267203    1.364056    1.697213
H      -1.904374   -0.515491    0.839968
H      -1.786900   -0.336181   -0.902802
H      -0.256520   -2.526382   -0.806315
H      -2.124817   -4.157470   -0.635929
H      -3.688411   -2.070202    1.063748
