18

C       0.035599    1.428462   -0.275959
C       0.046945   -0.081882    0.040983
N       0.767734   -0.476191    1.251340
C       2.218862   -0.273687    1.225163
C       2.842492   -1.110228    2.343505
O       2.510091   -2.472339    2.209190
C      -1.335329   -0.584344    0.134804
N      -2.428436   -0.949393    0.213330
H       1.058638    1.791062   -0.402586
H      -0.518185    1.628079   -1.197392
H      -0.438099    1.987980    0.536261
H       0.521358   -0.610389   -0.795954
H       0.358933   -0.014599    2.059019
H       2.588213   -0.643749    0.261385
H       2.528227    0.779586    1.320690
H       3.933809   -1.027919    2.304756
H       2.519952   -0.707213    3.320712
H       1.568592   -2.481822    1.987555
