25

C      -0.032938    1.514234   -0.027509
C       0.006351   -0.013013    0.085186
C       0.742207   -0.542925    1.329697
C       0.052932   -0.148177    2.642241
C       0.894686   -2.060953    1.224119
O       1.690925   -2.538907    2.291564
C       1.903249   -3.937535    2.260491
C       2.657172   -4.301656    3.529340
O       1.915333   -3.970371    4.686311
H       0.978057    1.936734   -0.016727
H      -0.511767    1.823128   -0.961857
H      -0.592828    1.971499    0.793619
H      -1.019840   -0.406193    0.080051
H       0.491709   -0.420517   -0.811331
H       1.757898   -0.122420    1.331970
H       0.584579   -0.570716    3.497917
H       0.020126    0.936977    2.771544
H      -0.978697   -0.520656    2.668055
H      -0.096718   -2.547149    1.245358
H       1.365097   -2.326135    0.262632
H       0.938951   -4.470325    2.231715
H       2.480950   -4.227119    1.366732
H       2.835072   -5.381784    3.556101
H       3.636945   -3.797573    3.520018
H       1.628779   -3.058523    4.559396
