13

C      -0.056802    1.501523    0.009533
C       0.030412   -0.008838    0.002387
O       1.084566   -0.610006   -0.008802
C      -1.243334   -0.765132    0.009575
N      -2.452073   -0.185312    0.021843
N      -3.277270   -1.213115    0.024322
N      -2.728499   -2.427250    0.014734
C      -1.425863   -2.163696    0.005117
H       0.949870    1.919868    0.002691
H      -0.618836    1.853765   -0.861404
H      -0.603728    1.846262    0.893008
H      -4.277865   -1.088750    0.033046
H      -0.686654   -2.947007   -0.004238
