24

C      -0.585504    2.196156   -0.519585
O      -0.806162    0.837743   -0.153665
C      -0.273212   -0.108719   -0.973268
C      -0.669868   -1.465819   -0.434601
N       0.397211    0.247471   -1.982793
C       1.028634   -0.632235   -2.974960
C       0.032456   -1.619181   -3.617330
C       1.551027    0.311484   -4.076569
C       2.231360   -1.377742   -2.361944
H       0.483045    2.429361   -0.539017
H      -0.996477    2.407838   -1.511115
H      -1.093326    2.791826    0.241131
H      -1.669517   -1.730250   -0.795216
H       0.021696   -2.249104   -0.737154
H      -0.713798   -1.423265    0.655623
H      -0.844426   -1.081004   -3.990908
H       0.500632   -2.130433   -4.464998
H      -0.310531   -2.386206   -2.919522
H       2.247929    1.039186   -3.651368
H       2.064389   -0.246353   -4.866904
H       0.721448    0.866513   -4.524509
H       1.929162   -2.104691   -1.603296
H       2.780943   -1.918719   -3.139504
H       2.916581   -0.665619   -1.892536
