21

C      -0.066398    1.595006   -0.045208
C      -0.047022    0.064793   -0.013028
C      -1.447993   -0.544321   -0.087622
N      -1.414498   -1.993384   -0.036017
C      -0.917439   -2.723602   -1.235082
C      -2.110386   -3.639821   -1.097229
C      -2.714934   -2.711787   -0.068189
N      -2.386364   -4.747957   -1.635564
O      -3.622341   -5.236605   -1.171444
H       0.946605    2.004929    0.005473
H      -0.530575    1.968878   -0.964579
H      -0.632440    2.002892    0.799692
H       0.555361   -0.311581   -0.850073
H       0.439185   -0.292849    0.901690
H      -2.043853   -0.195159    0.765510
H      -1.961553   -0.178190   -1.001523
H      -0.945322   -2.127809   -2.162961
H       0.078139   -3.166429   -1.129858
H      -3.026406   -3.153115    0.884382
H      -3.551947   -2.120802   -0.475219
H      -3.696725   -6.075834   -1.638173
