20

C       0.056748    1.555185   -0.279520
O      -0.272241    0.187417   -0.360647
C       0.663043   -0.590103   -1.092618
C       1.923675   -0.966262   -0.345026
C       2.199181   -2.264494   -0.457678
C       1.174853   -3.004083   -1.280722
C       0.068814   -1.959858   -1.458508
C      -1.356585   -2.255097   -1.179580
N      -0.877373   -2.110843   -2.569134
H       0.980931    1.731939    0.290225
H       0.178981    2.004350   -1.278008
H      -0.767735    2.055530    0.234408
H       0.921031   -0.032701   -2.014066
H       2.531164   -0.234780    0.174950
H       3.070094   -2.755150   -0.036290
H       1.581319   -3.307460   -2.254749
H       0.818559   -3.919691   -0.794509
H      -1.643837   -3.266006   -0.901192
H      -1.959465   -1.462677   -0.751298
H      -1.142250   -1.191055   -2.917329
