21

C       0.279567    1.430620    0.034919
C      -0.048288   -0.052268    0.071092
O      -0.260174   -0.629236    1.113550
C      -0.068659   -0.764934   -1.277925
C       1.391718   -1.053045   -1.779098
C       1.298863   -2.456412   -2.319381
C       0.135373   -3.049815   -2.049661
C      -0.274130   -4.444924   -2.400678
C      -0.779440   -2.137373   -1.262547
H       1.174023    1.621371   -0.567530
H      -0.544615    1.974524   -0.442192
H       0.421898    1.808437    1.048004
H      -0.545945   -0.099573   -2.005262
H       1.716494   -0.323258   -2.529788
H       2.122242   -0.995777   -0.958955
H       2.128681   -2.927775   -2.836242
H       0.510505   -4.972725   -2.949503
H      -0.509688   -5.024843   -1.499099
H      -1.183091   -4.448059   -3.015969
H      -0.898831   -2.490115   -0.230293
H      -1.786632   -2.083385   -1.693742
