21

O      -0.251314    1.445811   -0.071674
C       0.044782    0.067971    0.059694
C       0.086929   -0.513019    1.504289
C      -0.795806   -1.691893    1.001097
C      -1.190107   -0.816630   -0.223671
C      -0.018687   -2.957833    0.650894
C       1.180681   -2.816315   -0.248906
C       1.703419   -1.733978   -0.828325
C       1.268511   -0.294385   -0.781249
H       0.546927    1.946198    0.131339
H       1.064129   -0.754189    1.933022
H      -0.460790    0.142892    2.185190
H      -1.624769   -1.960676    1.660467
H      -2.102808   -0.245508   -0.040008
H      -1.253645   -1.299716   -1.202377
H       0.311710   -3.442235    1.582632
H      -0.707044   -3.681332    0.187486
H       1.685280   -3.762002   -0.443930
H       2.587978   -1.889823   -1.444477
H       1.081417    0.054262   -1.807348
H       2.121869    0.306393   -0.422908
