17

C      -0.034820    1.523754    0.026356
C       0.007544    0.018730   -0.007896
C       0.019226   -0.700232   -1.201478
C       0.057850   -2.101225   -1.225092
N       0.135379   -2.791212   -2.442745
C       0.082505   -2.790182   -0.007449
C       0.071239   -2.091641    1.195885
C       0.034668   -0.708668    1.180552
F       0.021313   -0.035048    2.346770
H       0.837743    1.933399    0.546364
H      -0.056182    1.938481   -0.984168
H      -0.917935    1.884614    0.564391
H       0.002420   -0.155206   -2.141675
H      -0.264885   -2.294215   -3.225940
H      -0.217321   -3.737099   -2.404337
H       0.114893   -3.875198   -0.000952
H       0.088243   -2.611235    2.146995
