16

O      -0.030084    1.481997   -0.148709
C       0.086094    0.073456   -0.038221
C      -1.334169   -0.490381    0.073802
C      -1.378552   -1.968905    0.172300
C      -1.708020   -2.863333    1.141807
O      -2.125399   -2.599992    2.396372
N      -1.564939   -4.156733    0.681306
C      -1.154733   -4.004640   -0.539207
O      -1.013892   -2.728805   -0.929414
H       0.853769    1.853405   -0.220780
H       0.584409   -0.361593   -0.918079
H       0.666602   -0.219242    0.850293
H      -1.811665   -0.075315    0.966485
H      -1.910742   -0.140117   -0.791205
H      -2.292903   -3.451171    2.817954
H      -0.919988   -4.770515   -1.261374
