17

C      -0.031955    1.549184    0.011013
C      -0.019394    0.011059    0.002278
C      -1.449750   -0.552651   -0.046424
C       0.815531   -0.520070   -1.171743
O       0.592041   -0.337287   -2.344753
C       1.956141   -1.304617   -0.613794
C       1.913647   -1.312574    0.726587
C       0.739704   -0.534253    1.220439
O       0.442323   -0.365283    2.379026
H       0.981499    1.961570    0.045460
H      -0.519871    1.920264   -0.894166
H      -0.576139    1.909665    0.887957
H      -1.953505   -0.205457   -0.952403
H      -1.452885   -1.647313   -0.052871
H      -2.010134   -0.215797    0.829710
H       2.688785   -1.781278   -1.254162
H       2.604436   -1.797074    1.406377
