18

C      -0.003675    1.481743    0.182486
N      -0.026385    0.001670   -0.072522
H       0.509111   -0.232708   -0.911150
H       0.418691   -0.479856    0.714882
C      -1.443882   -0.541756   -0.129844
C      -1.525947   -2.085201   -0.110117
C      -2.067062   -1.954819    1.315815
C      -2.450971   -2.965668    2.251779
O      -2.857789   -2.800661    3.391927
C      -2.016407   -0.544982    1.336667
O      -2.177683    0.426161    2.071815
H       1.021534    1.797581    0.380487
H      -0.389541    1.982012   -0.706129
H      -0.663187    1.653069    1.037837
H      -1.954843    0.007297   -0.924686
H      -2.195181   -2.483115   -0.884528
H      -0.554093   -2.590640   -0.240257
H      -2.341916   -4.004156    1.841982
