17

C      -0.062511    1.551744   -0.004929
C       0.067995    0.045994    0.019128
C       1.373658   -0.688841   -0.214338
O       2.563421    0.053148   -0.047234
C       2.672538    0.452891    1.252700
O       3.562444    1.107713    1.689309
O       1.600249    0.013966    1.969119
C       0.725408   -0.740248    1.138128
C       0.120954   -1.922243    1.834656
H       0.809717    2.054735    0.416588
H      -0.184709    1.907380   -1.032502
H      -0.937178    1.869110    0.570848
H      -0.777542   -0.488975   -0.408440
H       1.484189   -1.515025   -0.905340
H      -0.535272   -1.599553    2.648947
H      -0.474451   -2.510072    1.130940
H       0.900149   -2.565571    2.254391
