14

O       0.056976    1.323099    0.093257
C      -0.017894   -0.029305    0.023583
C      -1.195398   -0.693594    0.019011
C      -1.211527   -2.138181    0.004083
N      -2.294271   -2.832315    0.002464
C       0.155912   -2.713219   -0.022850
O       0.210549   -4.058833   -0.037012
N       1.266132   -2.060520   -0.022981
N       1.180323   -0.692741   -0.049602
H       0.805646    1.634815   -0.429366
H      -2.127523   -0.146768    0.006019
H      -2.067454   -3.826907   -0.024550
H       1.144200   -4.310436   -0.051088
H       2.015136   -0.241075    0.290839
