17

C      -0.362531    1.524916   -0.059281
C       0.064531    0.066691   -0.042414
O       1.070830   -0.141691   -1.075923
C       2.070564   -0.827774   -0.482704
N       2.011745   -1.101713    0.753150
C       0.755458   -0.507687    1.241536
C       1.061827    0.522291    2.352103
C       1.598845   -0.109414    3.554823
N       1.999400   -0.600875    4.520387
H       0.470076    2.192476    0.178122
H      -0.735002    1.788958   -1.052244
H      -1.169149    1.699309    0.659328
H      -0.786659   -0.567427   -0.311998
H       2.886811   -1.095775   -1.144635
H       0.136219   -1.295336    1.680945
H       1.784654    1.260948    1.991155
H       0.150621    1.062749    2.629921
