19

O       0.172555    1.393644   -0.069496
C       0.019220   -0.013512   -0.125543
C      -1.400012   -0.478402   -0.008651
C      -2.507175    0.268907    0.019322
C      -3.744962   -0.569925    0.052912
C      -3.953246   -1.419979   -1.185270
C      -3.255866   -1.999874    0.027167
C      -1.727395   -1.968654    0.063687
O      -1.076143   -2.741613   -0.940150
H      -0.160977    1.684295    0.785786
H       0.436209   -0.328639   -1.089509
H       0.632451   -0.519724    0.640904
H      -2.527087    1.350925   -0.043056
H      -4.605502   -0.262294    0.635948
H      -4.951504   -1.792859   -1.389968
H      -3.381135   -1.157848   -2.070593
H      -3.770519   -2.782540    0.570603
H      -1.358573   -2.397811    1.004964
H      -1.498216   -2.529420   -1.780505
