20

N      -0.058198    1.278664    0.146762
C       0.039564   -0.043463   -0.200105
O       1.058911   -0.545889   -0.612854
C      -1.291407   -0.798589   -0.095432
O      -1.034887   -2.166724   -0.003049
C      -2.206026   -2.955962   -0.038567
C      -1.799241   -4.418739    0.061419
C      -2.994135   -5.362089    0.017277
O      -2.500971   -6.687255    0.132539
H       0.792731    1.818079    0.145969
H      -0.833432    1.627415    0.683933
H      -1.872657   -0.436048    0.771921
H      -1.884947   -0.557141   -0.995935
H      -2.879031   -2.681808    0.793424
H      -2.761655   -2.767627   -0.974265
H      -1.116567   -4.660266   -0.759518
H      -1.248732   -4.578871    0.994217
H      -3.691335   -5.124181    0.838266
H      -3.546975   -5.223413   -0.926792
H      -3.248523   -7.290719    0.094678
