16

C       0.614370    1.382398   -0.031966
N      -0.088606    0.104890    0.044221
C       0.182198   -0.770617   -1.115802
C       1.453793   -1.572374   -0.776120
C       1.408839   -1.653571    0.753758
O       2.091982   -2.341068    1.465345
C       0.297423   -0.689101    1.211206
H       1.716525    1.302374   -0.077304
H       0.280215    1.925981   -0.920743
H       0.361046    1.988249    0.842977
H      -0.667165   -1.452749   -1.247031
H       0.268446   -0.174108   -2.026171
H       1.509725   -2.568825   -1.219974
H       2.365544   -1.035200   -1.063317
H       0.624469   -0.072468    2.051545
H      -0.547527   -1.299720    1.563072
