17

O      -0.934699    1.500047    0.218443
C       0.084587    1.014546   -0.195353
C       1.400913    1.794120   -0.339661
O       2.363903    1.201358   -0.768056
C       1.385973    3.247750    0.067841
C       2.734100    3.942549   -0.109144
C       2.680858    5.423466    0.314342
C       3.959812    6.103808    0.152519
C       5.024642    6.642449    0.010196
H       0.177332   -0.045133   -0.514564
H       0.590798    3.743547   -0.506746
H       1.033838    3.295434    1.108020
H       3.498618    3.422016    0.475437
H       3.053048    3.871707   -1.153375
H       1.912984    5.946489   -0.271466
H       2.359636    5.495462    1.362194
H       5.961260    7.127308   -0.111844
