16

O      -0.410374    0.004987   -0.106987
C      -0.119643    1.168431   -0.159469
N       1.158230    1.705553   -0.155683
C       2.382079    1.043515   -0.122993
N       2.548481   -0.212239   -0.263471
C       3.980358   -0.513100   -0.109810
C       4.701791    0.819449    0.070833
N       4.536256    1.713145   -1.093171
C       3.633911    1.849414    0.083919
H      -0.869139    1.985522   -0.208945
H       1.204468    2.712251   -0.192054
H       4.120099   -1.168529    0.758513
H       4.335514   -1.054995   -0.992807
H       5.592392    0.903757    0.683691
H       5.240443    2.447665   -1.039736
H       3.652593    2.752356    0.685742
