18

C       0.880189    0.085177    0.814637
C      -0.107738    0.012756   -0.325479
O      -0.107316    0.781617   -1.259536
C      -1.195184   -1.073164   -0.240656
N      -0.760986   -2.291905    0.449909
C      -1.892112   -2.891088    1.174564
C      -2.797704   -1.713053    1.456253
O      -2.122230   -0.574890    2.005600
C      -2.380911   -0.603075    0.596319
H       1.484557    0.988247    0.720792
H       0.343562    0.060145    1.767977
H       1.522857   -0.800750    0.806338
H      -1.564257   -1.224851   -1.267493
H      -0.307279   -2.947207   -0.172041
H      -2.465278   -3.627424    0.586541
H      -1.543469   -3.388607    2.087328
H      -3.819951   -1.865642    1.789715
H      -3.041731    0.167385    0.212189
