14

N      -0.058871    1.180352   -0.176082
C      -0.041113   -0.077161   -0.116370
O       1.035462   -0.878184   -0.387502
C       0.853456   -2.199414    0.149819
C      -0.654153   -2.360230    0.390638
C      -1.225057   -0.941446    0.240554
O      -1.958015   -1.359189   -0.968304
C      -1.480724   -2.642848   -0.871057
O      -1.700315   -3.561881   -1.587679
H       0.855985    1.547697   -0.444889
H       1.253137   -2.918982   -0.567999
H       1.415257   -2.280237    1.086686
H      -0.910889   -2.959290    1.262162
H      -1.898480   -0.509890    0.976212
