23

C      -0.020616    1.590931    0.015553
C       1.522026    1.706539   -0.000719
C       1.789290    1.048624    1.366361
C       1.106616   -0.320131    1.091025
C       2.223537   -1.210858    0.502453
C       2.961929   -0.375291   -0.585867
C       1.959123    0.667684   -1.127998
C       0.652225   -0.131628   -1.389659
C       0.005535    0.044203   -0.002553
H      -0.460592    2.035648    0.912237
H      -0.524964    2.007664   -0.860437
H       1.940938    2.706134   -0.131173
H       2.843781    0.938703    1.631668
H       1.310123    1.618955    2.167673
H       0.658644   -0.773882    1.977827
H       2.915616   -1.512402    1.295936
H       1.813147   -2.134313    0.081591
H       3.853852    0.108890   -0.175554
H       3.306349   -1.019283   -1.402059
H       2.348741    1.174670   -2.013521
H       0.021530    0.310507   -2.166653
H       0.851594   -1.165529   -1.682441
H      -0.948230   -0.467476    0.139620
