16

C       0.038466    1.554973   -0.045487
C       0.053865    0.036603   -0.014423
O       0.754856   -0.452146   -1.144273
C       1.269384   -1.728602   -0.779967
C       1.301141   -1.697008    0.771208
O       0.802583   -0.405682    1.103829
C      -1.314162   -0.535425    0.026402
C      -2.418830   -1.007682    0.059633
H       1.068653    1.915243   -0.074568
H      -0.497528    1.902252   -0.930919
H      -0.460236    1.939042    0.846516
H       0.621130   -2.532032   -1.150215
H       2.258769   -1.832312   -1.232292
H       0.668097   -2.483276    1.200017
H       2.308101   -1.784387    1.186657
H      -3.397234   -1.420602    0.089066
