14

C      -0.034389    1.492898    0.038579
C       0.011961    0.002283   -0.038602
C       0.042010   -0.841248   -1.132223
C       0.082908   -2.176743   -0.640340
O       0.121115   -3.336360   -1.363351
C       0.077703   -2.124708    0.732580
N       0.034517   -0.786213    1.079168
H       0.841149    1.909926    0.552360
H      -0.056839    1.916654   -0.967950
H      -0.925286    1.853729    0.568135
H       0.034922   -0.531380   -2.167396
H       0.117566   -3.107875   -2.296801
H       0.100123   -2.908577    1.469697
H       0.021474   -0.442491    2.022812
