14

N      -0.019101    1.264688    0.350966
C      -0.441363    0.098275   -0.212889
O      -0.963736   -0.009759   -1.295693
O      -0.202802   -0.919710    0.662779
C      -0.576611   -2.200141    0.351542
C      -1.218256   -2.721847   -0.743583
N      -1.305958   -4.071511   -0.455861
C      -0.730412   -4.277492    0.756125
N      -0.276182   -3.156080    1.273660
H       0.034773    2.064676   -0.254427
H       0.568896    1.233227    1.165879
H      -1.595243   -2.281944   -1.645184
H      -1.724181   -4.768831   -1.048085
H      -0.667436   -5.252457    1.214127
