16

O      -0.067177   -0.050271    0.050625
C      -0.089918    1.152531    0.050070
C      -1.404145    1.993920   -0.037056
C      -1.217174    2.868927    1.170525
C      -0.074705    3.564412    1.220553
C       1.022591    3.362345    2.240202
N       1.913257    2.873255    1.102669
C       0.967175    3.474071    0.115973
C       1.172776    2.016502    0.048379
H      -1.417523    2.537038   -0.987559
H      -2.271187    1.336220    0.013923
H      -1.729597    2.592810    2.088378
H       1.516842    4.262089    2.618650
H       0.840491    2.656414    3.055065
H       1.264373    4.219210   -0.613815
H       1.940144    1.599670   -0.598348
