15

N      -0.387377    1.310942    0.528958
C      -0.009708    0.035858    0.115335
N      -0.839766   -0.724511   -0.594172
N      -0.178678   -1.901154   -0.729565
C       1.042654   -1.890513   -0.152633
C       1.959025   -3.084898   -0.151367
C       1.554663   -4.102896   -1.120942
N       1.198348   -4.893329   -1.884457
C       1.197671   -0.643780    0.418913
H       0.365805    1.984313    0.500933
H      -1.188529    1.648704    0.011059
H      -0.592864   -2.642850   -1.269849
H       2.984429   -2.772216   -0.377752
H       1.990258   -3.552565    0.841248
H       2.042465   -0.283133    0.983348
