18

C       0.010993   -1.209696    0.062493
C      -0.032422   -0.009318    0.029244
C      -0.063806    1.447008   -0.026582
C       1.336772    2.072203   -0.001942
C       1.539195    3.598127   -0.105255
C       0.728738    4.165138    1.091310
C       1.697717    3.377276    1.971197
C       2.726835    3.350167    0.906914
N       2.075357    2.073629    1.306520
H       0.045583   -2.269930    0.102811
H      -0.568716    1.769470   -0.948012
H      -0.663182    1.830527    0.805742
H       1.977647    1.549722   -0.718312
H       1.567018    4.117795   -1.061428
H       0.903536    5.237877    1.207615
H      -0.346169    3.965914    1.143095
H       1.821910    3.406030    3.045312
H       3.795692    3.514831    0.887330
