19

C      -0.426362    1.478528    0.047025
N      -0.192620    0.032854   -0.021629
C      -1.087985   -0.926881    0.733637
C       0.007474   -1.989369    0.439293
C       0.713352   -0.702793    0.949535
C      -0.349327   -0.668420    2.093750
C      -0.534702    0.567129    2.992653
C      -1.929476    0.758136    3.388410
N      -3.039724    0.893321    3.680026
H       0.507772    2.006579    0.270594
H      -0.757786    1.817027   -0.941063
H      -1.190683    1.800882    0.764609
H      -2.161136   -0.989008    0.548053
H       0.042866   -2.870306    1.081014
H       0.158972   -2.206936   -0.616168
H       1.783682   -0.493609    1.008620
H      -0.342313   -1.552248    2.740598
H       0.062793    0.428328    3.901358
H      -0.175457    1.486414    2.530269
