19

C       0.031558    1.544007   -0.174122
C      -0.032574    0.062075    0.212998
C      -1.446086   -0.500378    0.147046
C      -2.015611   -0.888257   -1.247431
O      -1.116573   -2.071632   -1.260708
C      -1.615145   -2.055774    0.156496
C      -1.113049   -3.087289    1.110270
C      -2.996443   -1.842300   -0.524029
O      -4.102625   -2.271695   -0.560249
H       1.053513    1.925793   -0.091992
H      -0.299179    1.700133   -1.206304
H      -0.605666    2.155116    0.474653
H       0.616061   -0.528337   -0.440052
H       0.344842   -0.063693    1.235922
H      -2.140320    0.046004    0.797407
H      -2.097364   -0.309656   -2.164730
H      -0.040004   -2.971867    1.290338
H      -1.637108   -2.992694    2.066392
H      -1.296584   -4.090748    0.716213
