18

N      -0.065076    1.321433   -0.250275
C       0.081056    0.053369   -0.117580
C      -1.134961   -0.749064   -0.172936
N      -2.087486   -1.401904   -0.213735
N       1.222253   -0.670654    0.072376
C       2.528308   -0.022626    0.177098
C       3.476606   -1.171930    0.554450
C       2.796000   -2.410975   -0.049989
C       1.304329   -2.134251    0.177137
H       0.830464    1.806993   -0.204324
H       2.806789    0.438621   -0.781610
H       2.512212    0.772655    0.932249
H       4.490241   -1.009260    0.182936
H       3.531112   -1.265810    1.643935
H       3.003929   -2.471794   -1.123437
H       3.118597   -3.347612    0.409144
H       0.984108   -2.475077    1.171131
H       0.661671   -2.617037   -0.562541
