16

O      -0.008298    0.029053    0.216141
C      -0.000088    1.200783   -0.005021
O      -1.159101    1.938925   -0.165672
C      -0.759934    3.251235   -0.541884
C       0.022175    4.140001    0.498399
C       0.927519    3.108504    1.182050
C       1.148728    2.196836   -0.083343
C       0.649259    3.204874   -1.157961
N       0.947111    4.569851   -0.614450
H      -1.556718    3.745648   -1.095142
H      -0.447587    4.913426    1.103505
H       1.857330    3.571699    1.513608
H       0.462733    2.577502    2.014816
H       2.127333    1.739689   -0.193471
H       0.856198    2.991813   -2.205681
H       0.448123    5.238692   -1.203696
