16

C      -0.195411    1.533475   -0.012494
C      -0.045853    0.018229   -0.030194
N      -1.320863   -0.604514   -0.294874
C       1.242357   -0.462790   -0.770069
O       1.909799   -0.733486    0.482565
C       0.689057   -0.576495    1.222926
C       0.836889    0.255971    2.414871
N       0.932867    0.926324    3.351454
H       0.742336    2.018503    0.268257
H      -0.477651    1.892353   -1.008890
H      -0.969201    1.835388    0.698019
H      -1.802765   -0.142781   -1.058827
H      -1.218335   -1.583134   -0.544205
H       1.097939   -1.379286   -1.358831
H       1.785437    0.275528   -1.369316
H       0.262415   -1.544406    1.520669
