19

C       0.150227    1.244186   -0.183276
O      -0.248207   -0.065068    0.152357
C       0.541256   -0.650559    1.144880
C       0.145895   -2.032173    1.596683
C       0.750660   -3.149823    0.708620
C       1.230422   -2.802811   -0.659326
C       2.016060   -1.723473   -0.593849
C       2.013303   -1.201347    0.820062
C       1.608484   -2.422437    1.705149
H       1.156132    1.267650   -0.629154
H      -0.565471    1.626657   -0.914875
H       0.148549    1.908500    0.695712
H       0.620096    0.014327    2.018393
H      -0.677037   -2.261923    2.262428
H       0.385927   -4.143427    0.942505
H       0.934918   -3.338215   -1.552574
H       2.449764   -1.190918   -1.430888
H       2.841306   -0.563138    1.124026
H       2.154524   -2.859440    2.531478
