23

C      -0.156169    1.473139    0.230888
C       0.068313   -0.011337   -0.096704
C       0.764045   -0.168033   -1.440127
C       0.656202   -1.451313   -2.221441
C      -0.041169   -0.206240   -2.715030
C       0.853815   -0.703119    1.007661
C       0.194189   -1.052954    2.329041
C       0.605846   -2.139379    1.365949
O      -0.382424   -2.818173    0.639719
H       0.799876    2.003118    0.318461
H      -0.735765    1.962777   -0.557901
H      -0.690636    1.595831    1.178067
H      -0.907414   -0.506330   -0.166454
H       1.720408    0.349033   -1.500984
H       1.528411   -1.797411   -2.765815
H       0.052220   -2.241832   -1.791042
H      -1.122761   -0.164856   -2.629761
H       0.351212    0.293706   -3.594078
H       1.893590   -0.388248    1.071900
H       0.744634   -0.925340    3.255101
H      -0.872062   -0.861078    2.403883
H       1.469934   -2.750629    1.625927
H      -0.857572   -3.392196    1.249160
