21

C      -0.378263    1.486433   -0.157882
C       0.103120    0.051207    0.094256
C       0.915161   -0.497524   -1.049868
O       0.165558   -0.815147   -2.258177
C       0.854252   -1.871298   -1.579373
C       2.207533   -2.235597   -2.192854
C       2.115418   -2.694500   -3.656075
C       2.995357   -0.949153   -2.004385
C       2.297646   -0.005690   -1.369577
H       0.461917    2.177766   -0.281408
H      -0.985404    1.530666   -1.066592
H      -0.984826    1.847242    0.677906
H       0.708681    0.011530    1.008659
H      -0.760704   -0.602966    0.253725
H       0.215223   -2.643197   -1.155660
H       2.662225   -3.041259   -1.598078
H       1.586351   -1.944230   -4.249099
H       3.111372   -2.839257   -4.086441
H       1.574485   -3.642826   -3.736633
H       3.999037   -0.830652   -2.399620
H       2.647400    0.990254   -1.125820
