23

C       0.015302    1.637156    0.003800
C       0.035681    0.106205    0.066720
C       0.780928   -0.528899   -1.111338
C       2.294489   -0.192731   -1.178795
O       2.914303   -0.160588    0.099303
C       2.811453   -1.366975   -2.003833
O       2.147197   -2.481796   -1.422882
C       0.777974   -2.096843   -1.195791
C       0.278655   -2.871791    0.015016
H       1.026316    2.047112    0.083409
H      -0.421945    1.992650   -0.936510
H      -0.577401    2.054430    0.823661
H       0.499996   -0.205276    1.006928
H      -0.994738   -0.269234    0.082790
H       0.331252   -0.147477   -2.037061
H       2.488159    0.779851   -1.637295
H       2.950802   -1.073645    0.409727
H       2.556280   -1.253910   -3.070575
H       3.889288   -1.519218   -1.907191
H       0.186923   -2.401155   -2.073323
H       0.827475   -2.599540    0.921259
H      -0.785457   -2.688627    0.188340
H       0.417542   -3.943022   -0.155496
