18

C       0.264244    1.077919   -0.349687
O      -0.267616   -0.100865    0.250200
C       0.584810   -0.802198    1.010545
N       0.214248   -1.886443    1.539171
C       1.175268   -2.642556    2.309499
C       0.422607   -3.774907    3.021162
O      -0.275088   -4.555545    2.077523
C       2.290260   -3.225859    1.430019
O       2.614764   -2.786332    0.360372
H       1.050712    0.833034   -1.072190
H      -0.565909    1.557419   -0.868809
H       0.662381    1.766255    0.405144
H       1.575086   -0.345025    1.132049
H       1.700245   -2.032654    3.068694
H       1.125697   -4.436874    3.539780
H      -0.248917   -3.338319    3.775602
H      -0.751726   -3.916788    1.527897
H       2.818160   -4.091647    1.888022
