16

N      -0.076206   -1.116604   -0.341244
C      -0.069490    0.020849   -0.139001
C      -0.018109    1.471490    0.073004
N      -0.522152    1.846881    1.412715
C       0.357979    2.636079    1.900931
N       1.448486    2.961011    1.120428
C       1.416930    2.061649   -0.023375
C       2.634543    1.294907   -0.451044
C       2.079821    2.409680   -1.319101
H      -0.664043    1.934787   -0.685514
H       0.257241    3.091676    2.881641
H       2.333984    3.130110    1.577052
H       3.561661    1.481631    0.082625
H       2.502317    0.267961   -0.774297
H       1.573207    2.137233   -2.239898
H       2.630548    3.342963   -1.368590
