20

O      -0.284313    1.274471   -0.272534
C      -0.207120   -0.120661   -0.103462
C       0.827389   -0.782820   -0.973140
C       1.156457   -0.246552   -2.316357
N       2.116884   -0.117888   -1.203950
C      -0.327197   -0.670630    1.284352
C      -1.323985    0.145521    2.114771
C      -2.429023   -0.131026    1.046728
C      -1.422465   -0.943728    0.222284
H      -0.864774    1.453784   -1.020110
H       0.908905   -1.856504   -0.814420
H       1.457740   -0.920469   -3.113382
H       0.641784    0.649609   -2.652157
H       2.047894    0.829289   -0.834608
H       0.426465   -1.340546    1.682512
H      -1.552273   -0.323774    3.073639
H      -1.053700    1.190558    2.280686
H      -3.239586   -0.748615    1.438593
H      -2.864392    0.742502    0.552070
H      -1.645417   -1.855372   -0.321664
