19

C       0.397265    1.364893    0.104664
C      -0.288694    0.020293   -0.054733
O      -0.986621   -0.441016    0.825234
C      -0.073853   -0.720908   -1.333968
C      -1.146955   -1.713454   -1.759051
C       0.164575   -2.234647   -1.285363
C       1.212729   -2.498871   -2.349206
O       1.155380   -1.378789   -3.228652
C       0.820791   -0.225655   -2.462804
H       1.486455    1.241730    0.098774
H       0.148240    2.031937   -0.728225
H       0.090023    1.817399    1.047866
H      -1.984514   -1.797243   -1.077422
H      -1.373728   -1.764874   -2.819003
H       0.228781   -2.725257   -0.321873
H       2.208198   -2.596681   -1.886753
H       1.022676   -3.392255   -2.952869
H       0.335489    0.480630   -3.144928
H       1.725775    0.254053   -2.057176
