20

C       1.023869    0.748035    0.054991
N      -0.293533    0.247969   -0.334957
C      -0.253860   -0.666129   -1.455881
C       0.330103   -2.042194   -1.132474
O       0.481341   -2.475866   -0.018357
O       0.607393   -2.726810   -2.263283
C       1.109226   -4.043450   -2.098076
C       1.474457   -4.746732   -3.362361
C       2.556430   -4.279868   -2.406365
H       1.753866   -0.039559    0.299369
H       1.434451    1.356122   -0.759265
H       0.916240    1.396275    0.929195
H      -0.704510   -0.238813    0.455721
H      -1.269668   -0.836228   -1.837875
H       0.311468   -0.225056   -2.283617
H       0.642688   -4.576226   -1.279387
H       1.259017   -5.806188   -3.440579
H       1.355614   -4.188728   -4.284048
H       3.141353   -3.418362   -2.707310
H       3.092608   -5.012170   -1.813617
