15

N       0.041523    1.352765    0.129527
C       0.019833   -0.016528    0.035931
N      -1.059933   -0.733075    0.017461
C      -0.672496   -2.158384   -0.005793
C       0.831240   -2.167344   -0.016686
C       1.203427   -0.862656    0.012600
O       2.546467   -0.701258    0.010881
C       3.045627   -1.979014   -0.019804
C       2.047950   -2.914567   -0.037057
H       0.846299    1.816661   -0.262035
H      -0.839871    1.797086   -0.082448
H      -1.095207   -2.668132    0.869310
H      -1.111602   -2.639479   -0.888734
H       4.121100   -2.051696   -0.026540
H       2.192837   -3.983567   -0.060919
