15

O       0.015630    0.024541    0.063384
C      -0.011075    1.221247    0.034130
C      -1.149410    2.249783   -0.058986
C      -1.261682    3.069030    1.258001
N      -0.056009    3.897093    0.932087
C       1.194239    3.122916    1.220339
C       1.077683    2.298642   -0.093132
C      -0.064489    3.302104   -0.472250
H      -2.052769    1.980018   -0.605623
H      -2.151598    3.704902    1.253723
H      -1.218363    2.529115    2.209540
H       2.054865    3.797198    1.189210
H       1.203823    2.582267    2.172399
H       1.974818    2.068367   -0.667383
H      -0.092058    3.947412   -1.347103
