18

C       0.003162    1.475584    0.012193
C       0.002280   -0.020184    0.078773
O       0.785483   -0.706745   -0.952601
C       0.823641   -1.800392   -0.034067
C      -0.660086   -2.146751    0.439072
N      -0.225663   -1.850157    1.831019
C       0.719309   -0.913289    1.209482
C      -1.315608   -0.817442   -0.034522
O      -2.304690   -0.303202    0.838268
H       1.009355    1.876788    0.162973
H      -0.361124    1.818390   -0.962238
H      -0.659461    1.877452    0.784153
H       1.547934   -2.584153   -0.242624
H      -1.164501   -3.094704    0.250995
H      -0.964040   -1.398149    2.370483
H       1.542692   -0.489413    1.783360
H      -1.656884   -0.839541   -1.075542
H      -3.108767   -0.820555    0.727818
