20

C      -0.035347    1.568580    0.067880
C      -0.011377    0.040477   -0.011102
C       0.747561   -0.483670   -1.232096
O       2.112035   -0.062923   -1.239717
C       0.661890   -2.010106   -1.357184
O      -0.705342   -2.372187   -1.434459
C       1.403570   -2.531417   -2.585024
O       1.141582   -3.934403   -2.634341
H       0.979189    1.976766    0.056264
H      -0.573334    1.996909   -0.785002
H      -0.532927    1.909505    0.980674
H       0.458310   -0.376661    0.893171
H      -1.027385   -0.364101   -0.041094
H       0.312817   -0.046491   -2.140267
H       2.500159   -0.323472   -0.396394
H       1.128212   -2.463765   -0.461800
H      -0.711575   -3.276938   -1.772749
H       1.014842   -2.027117   -3.482197
H       2.475819   -2.319328   -2.502125
H       1.409070   -4.266785   -3.495230
