23

C       0.134505    1.396642   -0.219174
C      -0.075097   -0.112213   -0.081958
O       0.749925   -0.635047    0.959742
C      -1.549620   -0.499123    0.125694
C      -2.456973   -0.088816   -1.073284
C      -3.353857   -1.311020   -1.343454
C      -2.442779   -2.497569   -1.000302
O      -1.425303   -2.675973   -1.987553
C      -1.744091   -2.035757    0.280648
H       1.198329    1.617898   -0.340522
H      -0.405397    1.808492   -1.076826
H      -0.221939    1.917938    0.679180
H       0.278769   -0.618694   -0.987812
H       0.494986   -0.195736    1.779061
H      -1.892627    0.007799    1.038326
H      -3.030397    0.820897   -0.878292
H      -1.837436    0.102901   -1.955321
H      -4.221080   -1.317021   -0.671607
H      -3.738447   -1.350597   -2.369102
H      -3.001999   -3.433390   -0.858121
H      -1.857109   -2.832917   -2.833529
H      -0.796674   -2.555475    0.433358
H      -2.386043   -2.259715    1.138578
