14

O      -0.011948   -0.060904   -0.044525
C      -0.056374    1.144012    0.018575
C      -1.349132    1.945237    0.045665
N      -1.149202    3.224602    0.709792
C      -0.133180    4.031566    0.050775
C       1.201298    3.301937    0.024724
O       2.271634    3.857445   -0.034980
N       1.102531    1.914008    0.034653
H      -1.691633    2.029061   -1.005015
H      -2.087654    1.347780    0.583481
H      -2.022851    3.733625    0.769128
H      -0.372432    4.291691   -0.999639
H       0.021200    4.966851    0.592082
H       1.977992    1.403861    0.004832
