19

O       0.052611    1.274419   -0.231340
C      -0.052792   -0.105748   -0.066364
C      -0.349367   -0.612355    1.324328
O      -0.567904    0.385781    2.294241
C      -1.407031   -0.730617    0.249868
C      -2.660288    0.098392    0.281693
C      -3.607896    0.014564   -0.938907
O      -4.727181   -0.339292   -0.101695
C      -3.881268   -0.445431    1.061456
H      -0.095417    1.660584    0.643417
H       0.636139   -0.647020   -0.707770
H       0.119741   -1.519104    1.699878
H       0.261880    0.526590    2.763508
H      -1.549206   -1.743446   -0.121906
H      -2.430897    1.129617    0.546895
H      -3.782465    0.944001   -1.492597
H      -3.360826   -0.783546   -1.653449
H      -3.778449   -1.485878    1.400678
H      -4.245168    0.165324    1.895537
