18

C       0.197017    1.372761   -0.269331
C      -0.062024   -0.082090   -0.115728
C      -1.162745   -0.815268    0.197400
C      -0.757858   -2.191377    0.196958
C       0.563682   -2.203289   -0.124152
O       1.002106   -0.920910   -0.316051
C       1.549292   -3.278467   -0.281360
C       2.671499   -3.155446   -1.254624
N       2.941719   -3.098709    0.188575
H       0.551653    1.616597   -1.277498
H      -0.723038    1.932318   -0.086961
H       0.956988    1.724834    0.437991
H      -2.146031   -0.423850    0.407726
H      -1.368881   -3.055055    0.407907
H       1.141555   -4.264971   -0.079977
H       3.044420   -4.043161   -1.758112
H       2.729074   -2.237532   -1.832108
H       3.063258   -2.126813    0.465935
