25

C       1.233340    0.909516    0.897161
C       0.134344    0.565605   -0.114408
C       0.668367   -0.217879   -1.311993
C       1.148934   -1.662612   -1.097088
C       0.006830   -2.574301   -0.741233
C       0.191512   -2.169823   -2.175037
C      -0.311397   -0.737149   -2.450095
C      -1.810804   -0.489359   -2.279248
C       0.146005   -0.252064   -3.827798
H       1.704062    0.001988    1.290164
H       2.020265    1.517609    0.436569
H       0.832647    1.471246    1.746787
H      -0.655128   -0.002222    0.391492
H      -0.338211    1.490217   -0.471023
H       1.462754    0.373917   -1.781561
H       2.177012   -1.956303   -0.920431
H       0.291311   -3.597000   -0.513337
H      -0.838674   -2.220151   -0.158118
H       0.378619   -2.904044   -2.951496
H      -2.188821   -0.841179   -1.315846
H      -2.047650    0.577938   -2.358830
H      -2.373366   -1.010040   -3.062904
H      -0.413809   -0.752925   -4.626809
H      -0.010621    0.827353   -3.936932
H       1.209865   -0.457296   -3.987131
