17

N      -0.073534    1.320348    0.169726
C      -0.014503    0.076155   -0.044648
C      -1.274828   -0.760205   -0.081565
C      -1.196433   -1.910859   -1.108072
C       0.115408   -2.686064   -0.881418
C       1.284607   -1.718747   -1.003563
O       1.180079   -0.586673   -0.129475
C      -2.367632   -2.782840   -1.018319
N      -3.286283   -3.479185   -0.937636
H       0.869846    1.712951    0.210419
H      -1.416664   -1.195738    0.915286
H      -2.119601   -0.098940   -0.273308
H      -1.182573   -1.486182   -2.120784
H       0.101805   -3.143949    0.113329
H       0.229111   -3.488560   -1.616044
H       2.226497   -2.203311   -0.737882
H       1.369240   -1.357528   -2.038611
