17

C       0.108873    1.157911    0.666493
C       0.125191   -0.109783   -0.164812
O       1.099256   -0.471813   -0.783061
C      -1.157987   -0.926859   -0.191026
C      -1.065415   -2.436286   -0.400174
C      -0.849837   -2.992982    1.016908
O      -0.754199   -1.888751    1.922486
C      -1.841683   -1.289633    1.161669
C      -2.231815   -2.686506    0.555601
H       1.012755    1.738874    0.479181
H      -0.779302    1.762801    0.452130
H       0.068576    0.883129    1.726782
H      -1.883017   -0.471658   -0.875920
H      -0.789426   -2.980178   -1.292429
H      -0.336457   -3.914722    1.252715
H      -2.452448   -0.598299    1.737814
H      -3.150578   -3.249456    0.476109
