18

C       0.065759    1.557585    0.078403
C      -0.019845    0.029557    0.007008
C       0.810155   -0.576823   -1.164790
N       2.018107   -1.175190   -0.569081
C       1.805994   -1.163699    0.696075
C       2.754013   -1.710966    1.632675
N       3.494258   -2.139186    2.409948
N       0.619171   -0.638242    1.155265
C       0.303732   -0.328904    2.532079
H       1.108677    1.887547    0.129701
H      -0.385151    1.991649   -0.819554
H      -0.468198    1.959334    0.944604
H      -1.071957   -0.272861   -0.045269
H       0.256149   -1.362501   -1.693030
H       1.087971    0.178625   -1.906382
H       0.852693   -1.005456    3.190353
H       0.559299    0.702392    2.811479
H      -0.766788   -0.477528    2.709279
