20

C       0.564287   -1.000812   -1.048026
N      -0.106067    0.022787   -0.262790
C       0.264950    1.369385   -0.679752
C      -1.539177   -0.183310   -0.071649
C      -1.938757    0.573813    1.198055
O      -2.848570    1.355780    1.277749
C      -2.460159    0.150725   -1.234414
C      -2.721745   -0.815727   -2.310187
O      -3.683013   -0.587498   -1.282026
H       1.648111   -0.869419   -0.959906
H       0.313051   -1.992376   -0.659602
H       0.312568   -0.975931   -2.122935
H       0.025788    1.587962   -1.735463
H      -0.242489    2.113056   -0.057971
H       1.343890    1.503044   -0.550022
H      -1.686164   -1.247509    0.163230
H      -1.271938    0.350287    2.060000
H      -2.580076    1.210523   -1.452392
H      -2.998816   -0.456780   -3.300397
H      -2.241458   -1.793324   -2.291399
