18

C      -0.337798    1.439937   -0.122502
C      -0.199957   -0.071728   -0.043103
O      -0.524674   -0.730702    0.928905
N       0.332233   -0.661655   -1.149910
C       0.564355   -0.215864   -2.523922
C       0.830361   -1.712270   -2.911383
C       0.400588   -2.089080   -1.449744
C       0.052928   -2.262012   -3.999987
C      -0.605269   -2.713530   -4.898954
H       0.596737    1.913878   -0.438867
H      -1.110295    1.717941   -0.848327
H      -0.624685    1.814377    0.859657
H      -0.316592    0.213161   -3.014286
H       1.415742    0.460480   -2.653298
H       1.895377   -1.895525   -3.073172
H       1.140943   -2.641505   -0.864885
H      -0.566280   -2.596630   -1.380046
H      -1.181551   -3.117213   -5.694400
