16

C      -0.341494    1.511200    0.175897
C       0.012373    0.053035   -0.050703
C       0.583407   -0.639054   -1.227110
C       1.790879    0.024608   -1.902976
O       1.797229    1.484025   -2.006902
C       2.446368    1.605815   -0.782723
O       2.814090    2.605292   -0.260340
C       2.471953    0.086800   -0.547666
N       1.311695   -0.634947    0.138291
H       0.124938    2.212049   -0.508740
H      -1.425309    1.612789    0.060241
H      -0.092792    1.798009    1.202527
H      -0.723221   -0.592660    0.430612
H       0.152631   -1.556903   -1.615752
H       2.200380   -0.447780   -2.792461
H       3.423909   -0.369452   -0.287103
