19

C      -0.378676    1.458052    0.060922
O       0.992693    1.046621   -0.042052
C      -0.018492    0.038193   -0.022849
C       0.032239   -0.862675    1.214976
O      -0.714765   -2.066816    1.063344
C      -0.825721   -2.519354   -0.280214
C       0.419986   -2.155253   -1.134700
C      -0.251905   -0.757267   -1.291111
C      -1.618943   -1.488397   -1.125981
H      -0.664115    1.890134    1.019386
H      -0.776391    1.971473   -0.814348
H       1.090402   -1.095632    1.402726
H      -0.354857   -0.354924    2.102670
H      -1.167368   -3.554117   -0.225809
H       1.408873   -2.222266   -0.675774
H       0.418927   -2.706735   -2.077480
H      -0.056279   -0.157114   -2.181609
H      -1.970753   -1.911629   -2.070216
H      -2.433436   -0.961145   -0.622875
