15

C      -0.032132    1.510413   -0.061664
C      -0.034344    0.021865    0.016693
N      -0.097157   -0.752684   -1.068613
N      -0.075649   -1.988919   -0.575565
N      -0.004324   -2.099981    0.736151
C       0.023786   -0.827215    1.147529
C       0.103836   -0.440101    2.577135
N       0.146790   -1.483440    3.447775
O       0.127797    0.731047    2.918828
H       0.870675    1.920752    0.398374
H      -0.087221    1.829105   -1.104347
H      -0.876589    1.928296    0.492775
H      -0.112028   -2.796918   -1.176453
H       0.124880   -2.433899    3.120155
H       0.201870   -1.286040    4.432265
