14

N       0.173898    1.459084   -0.043734
C       0.037476    0.058824   -0.064647
C      -1.013653   -0.832987   -0.133955
N      -0.606941   -2.160258   -0.123561
C       0.687267   -2.046561   -0.047620
O       1.720654   -2.920009    0.002208
C       2.856868   -2.137029    0.074190
C       2.548239   -0.823551    0.069827
N       1.160384   -0.768877   -0.007620
H      -0.192790    1.895983   -0.881704
H      -0.284142    1.880776    0.756260
H      -2.063051   -0.582836   -0.191749
H       3.793131   -2.663874    0.122248
H       3.175294    0.048972    0.114201
