15

O       0.099688    1.366262   -0.318606
C       0.094144    0.009399    0.098712
C      -1.296913   -0.514176    0.259221
C      -2.346528   -0.218394    1.344952
C      -2.985006   -1.620268    1.041397
C      -1.910023   -1.823241   -0.035667
O      -2.034299   -0.736838   -0.961693
H      -0.395051    1.403467   -1.144987
H       0.638966   -0.636359   -0.606586
H       0.622111   -0.015594    1.057696
H      -1.921320   -0.159071    2.349614
H      -2.966726    0.660313    1.158452
H      -2.892089   -2.314465    1.879785
H      -4.012596   -1.628134    0.671455
H      -1.477332   -2.743573   -0.412983
