22

C       0.307309    1.534010    0.112718
C      -0.008227    0.040292   -0.012668
C       0.706546   -0.618537   -1.228425
C       1.305715   -1.942354   -0.709977
C       2.445351   -2.510542   -1.552767
C       1.675332   -1.596355    0.741074
O       2.859674   -0.798315    0.700934
C       0.461911   -0.787771    1.222093
H       1.382088    1.682391    0.261926
H       0.014298    2.078983   -0.791428
H      -0.220025    1.986173    0.960211
H      -1.092645   -0.071407   -0.120912
H       0.032319   -0.774399   -2.075916
H       1.517390    0.030076   -1.577727
H       0.501092   -2.688605   -0.650109
H       3.285583   -1.812320   -1.583459
H       2.810537   -3.458290   -1.142253
H       2.115377   -2.698316   -2.579960
H       1.848220   -2.496770    1.349624
H       3.035513   -0.487909    1.594133
H       0.707666   -0.156621    2.084188
H      -0.323430   -1.478122    1.550486
