17

O      -0.052745    1.418562    0.484038
C       0.051600    0.071425    0.071199
C      -1.310258   -0.572212   -0.072324
C      -2.054073   -1.192949    1.121649
C      -1.674310   -2.039898   -0.042854
O      -2.677696   -2.330107   -0.989917
C      -3.168036   -1.120712   -1.550106
C      -2.217316   -0.003354   -1.106287
O      -2.170602    1.115829   -1.565418
H      -0.605475    1.856696   -0.177291
H       0.595141   -0.016024   -0.883266
H       0.640628   -0.452322    0.831654
H      -1.460684   -1.272221    2.026360
H      -3.100078   -0.955162    1.282670
H      -0.940942   -2.833625    0.039268
H      -3.182391   -1.197959   -2.642330
H      -4.191602   -0.903205   -1.213042
