17

C       0.963065    1.368134   -0.160455
C       0.049493    0.155787   -0.102038
O       0.284686   -0.618313   -1.295488
C       0.224566   -1.985789   -1.120807
O       1.274156   -2.449114   -0.243562
C       1.394872   -1.745823    0.892344
O       2.306392   -1.915286    1.660964
C       0.288427   -0.729692    1.157891
O       0.587796    0.026336    2.293228
H       2.013794    1.065209   -0.123494
H       0.791932    1.907979   -1.095285
H       0.762680    2.031369    0.682060
H      -1.000192    0.478546   -0.105884
H      -0.741787   -2.327424   -0.719838
H       0.421067   -2.459641   -2.082499
H      -0.627756   -1.318901    1.334383
H       1.404568   -0.359906    2.649680
