19

C       0.373244    1.474881   -0.147567
C       0.671902   -0.013545    0.003850
C       0.333492   -0.554424    1.380123
O      -0.123491    0.128757    2.274132
C       0.601306   -1.997682    1.602005
C      -0.075736   -2.843724    2.645515
C       1.414872   -2.681707    2.703891
C       2.060847   -3.441029    1.549934
O       1.179847   -2.812802    0.576839
H       0.948498    2.064407    0.571054
H       0.622518    1.817490   -1.155584
H      -0.683862    1.682166    0.037792
H       0.124336   -0.617358   -0.733101
H       1.727120   -0.243417   -0.194044
H      -0.626072   -2.273956    3.385630
H      -0.518786   -3.783685    2.328605
H       1.928625   -2.219845    3.535504
H       3.101897   -3.157172    1.362995
H       1.965640   -4.532833    1.548086
