14

C      -0.003651    1.478781    0.100543
C       1.295125    0.740102    0.015022
O       2.025082    0.453857    1.210953
C       1.203185   -0.371328    1.923847
C       0.066227   -0.722883    1.279890
O      -0.660782   -1.561280    2.021627
N       0.040839   -1.776301    3.223964
C       1.145502   -1.051306    3.156644
C      -0.037371   -0.044550   -0.019688
H      -0.303794    1.921043    1.043469
H      -0.281782    2.042553   -0.783251
H       1.951086    0.857397   -0.837658
H       1.832861   -1.072794    3.988847
H      -0.429603   -0.527392   -0.906073
