21

C      -0.341831    1.428682    0.625154
C       0.018635    0.013434    0.237241
O      -1.041690   -0.751971   -0.277125
C       1.407355   -0.299424   -0.295541
C       0.985606   -0.799962    1.058247
O       1.635487   -0.242915    2.155995
C       0.895367   -0.321162    3.370131
C       1.681613    0.470914    4.403197
O       1.870116    1.811846    3.992107
H       0.442251    1.884098    1.234506
H      -0.494346    2.055534   -0.261702
H      -1.270868    1.431513    1.203605
H      -1.250095   -0.415461   -1.156118
H       1.496449   -1.025265   -1.095796
H       2.133875    0.506230   -0.310136
H       0.748537   -1.859830    1.154003
H      -0.103458    0.114924    3.234188
H       0.777771   -1.369700    3.685582
H       1.128825    0.496474    5.347661
H       2.644512   -0.030757    4.587713
H       2.283072    1.760457    3.122502
