20

C      -0.299426    1.418412   -0.620322
C      -0.143931    0.171945    0.260889
C      -1.390237   -0.677926    0.247237
O      -1.633976   -1.479080   -0.921587
C      -1.425352   -2.156946    0.333121
C      -0.199889   -3.026146    0.471192
C      -2.682549   -2.773010    0.934874
N      -3.820147   -2.481034    0.250641
O      -2.640961   -3.440622    1.951365
H       0.607399    2.029336   -0.596930
H      -0.492305    1.134200   -1.659092
H      -1.132948    2.043470   -0.282084
H       0.713657   -0.414418   -0.078558
H       0.057742    0.467590    1.298356
H      -2.285281   -0.158829    0.598651
H       0.705440   -2.512927    0.146833
H      -0.096986   -3.333100    1.514014
H      -0.315568   -3.931913   -0.132702
H      -3.746481   -2.059515   -0.660830
H      -4.681782   -2.906918    0.548097
