21

C      -0.059997    1.548407   -0.092143
C      -0.029628    0.019445    0.001082
C       0.735679   -0.526039    1.214231
C       0.645974   -2.051426    1.307676
C       1.525085   -2.570217    2.443629
N       2.876506   -2.066017    2.271092
C       3.176964   -0.808759    1.791411
O       4.292647   -0.324681    1.883142
N       2.145238   -0.159315    1.143199
H       0.937241    1.973275   -0.249195
H      -0.678286    1.872719   -0.934274
H      -0.476164    1.995039    0.817699
H      -1.058484   -0.356595    0.059494
H       0.413162   -0.402550   -0.909280
H       0.272946   -0.099290    2.122723
H      -0.392983   -2.350609    1.474540
H       0.978123   -2.490212    0.359968
H       1.095727   -2.267651    3.412738
H       1.551728   -3.665064    2.433384
H       3.618046   -2.453658    2.831909
H       2.380923    0.796258    0.927671
