17

N      -0.004671   -1.185902   -0.077959
C      -0.005444   -0.027833   -0.041303
C      -0.017510    1.391104    0.031842
C       0.279145    2.307000   -1.151156
C       1.124930    2.430307    0.065144
N       0.431122    3.245226    1.079347
C      -0.642635    2.216489    1.148110
C      -2.086382    2.488105    1.417916
C      -1.246217    1.693314    2.406929
H       0.736961    1.806793   -1.997598
H      -0.430546    3.092655   -1.392173
H       2.195124    2.268998    0.080429
H       0.958995    3.239659    1.948025
H      -2.353465    3.503638    1.688598
H      -2.832134    1.958219    0.834990
H      -1.413040    0.623747    2.485079
H      -0.971752    2.175434    3.340211
