15

O       0.112632   -0.043402   -0.073313
C       0.036014    1.161905   -0.008138
C      -1.204503    1.975794    0.083701
C      -0.909850    3.293895    0.024793
C      -1.820820    4.371585    0.063762
C      -2.568260    5.316832    0.081387
C       0.578615    3.516125   -0.042220
C       1.328444    3.041948    1.181818
C       1.190820    2.142603   -0.037231
H      -2.188581    1.541380    0.192623
H      -3.239537    6.139898    0.101313
H       0.967986    4.336567   -0.631363
H       2.313460    3.458258    1.365068
H       0.756314    2.806823    2.072834
H       2.078022    1.884596   -0.600221
