17

C      -0.066940    1.486280    0.063337
C       0.092953    0.001195    0.015134
N      -0.848590   -0.920738    0.720859
C       0.627560   -0.977541    0.980757
C       1.312483   -1.791199   -0.142186
C       0.382921   -2.240940   -1.243741
O      -0.863016   -2.826919   -1.124038
C       0.738223   -0.774572   -1.170211
H       0.863996    1.987637   -0.222068
H      -0.851578    1.821988   -0.625153
H      -0.333462    1.821432    1.071857
H      -1.269233   -0.395667    1.486934
H       1.006360   -0.842792    1.986014
H       2.332581   -2.143960   -0.048071
H       0.939436   -2.729970   -2.042315
H      -1.295880   -2.333371   -0.404327
H       1.263627   -0.253913   -1.962931
