13

O       0.006705    0.004424   -0.062886
C      -0.011855    1.197761   -0.061150
C      -1.087964    2.290234    0.088860
C      -0.759007    3.300905   -1.020122
C       0.003383    4.218258   -0.146374
C      -0.022721    3.112434    0.945353
C       1.029974    2.320777    0.090055
N       0.767739    3.298089   -1.038028
H      -2.117173    2.102397    0.379977
H      -1.261560    3.467489   -1.963418
H       0.136214    5.292586   -0.143719
H      -0.049138    3.180091    2.028141
H       2.080604    2.162162    0.317018
