13

N      -0.030269   -1.057845   -0.052231
C      -0.028899    0.097132    0.015717
C       0.026815    1.516094    0.101264
C      -0.932901    2.403093    0.831041
C      -0.002169    3.628670    1.041614
O       1.320259    3.133985    1.339987
C       1.256634    2.477517    0.065138
C       0.225585    3.493705   -0.488283
N      -0.889430    2.448411   -0.661275
H      -1.794360    2.044756    1.378968
H      -0.313692    4.495058    1.618939
H       2.208723    2.158973   -0.350121
H       0.383455    4.277088   -1.223644
