19

C      -0.265665    1.553194   -0.034549
C       0.031399    0.065057    0.019413
O       0.771150   -0.353974   -1.151615
C       1.827402   -1.168647   -0.638390
O       1.321298   -1.731676    0.550044
C       0.947247   -0.471184    1.141056
C       2.296763    0.275877    1.170635
C       2.945410   -0.216206   -0.149714
O       4.160353   -0.873973    0.159569
H       0.647773    2.147688   -0.113389
H      -0.886536    1.776401   -0.906626
H      -0.814591    1.868063    0.859569
H      -0.912805   -0.495828    0.049375
H       2.102530   -1.939955   -1.359297
H       0.462092   -0.634277    2.102180
H       2.207922    1.360630    1.238625
H       2.903369   -0.080194    2.005260
H       3.095358    0.591474   -0.876565
H       4.581888   -1.132852   -0.666339
