14

O      -1.046793    1.654233   -0.066404
C       0.000168    1.149746   -0.380109
C       1.341582    1.893350   -0.321488
O       2.351879    1.301628   -0.610683
C       1.274947    3.335461    0.137361
C       1.160794    3.531249    1.675672
C       2.519867    4.245039    1.519241
O       2.536651    4.003704    0.093717
H       0.097926    0.100349   -0.730334
H       0.499988    3.856560   -0.439793
H       0.323342    4.150432    1.994539
H       1.178167    2.614179    2.266390
H       2.519943    5.316691    1.748024
H       3.369412    3.768520    2.020359
