18

C      -0.015680    1.533109    0.060445
C       1.432083    2.039103   -0.005265
O       2.100736    1.845493   -1.240388
C       2.440931    0.500349   -1.528105
C       1.300003   -0.250660   -2.196843
O       0.978472   -1.555098   -1.695396
C       0.046552   -0.491406   -1.471703
C      -0.157279    0.004683   -0.050431
H      -0.430334    1.868925    1.019535
H      -0.604086    2.023220   -0.725016
H       1.444911    3.121293    0.161031
H       2.014524    1.571149    0.807361
H       3.307757    0.540641   -2.195656
H       2.740129   -0.039161   -0.618000
H       1.254353   -0.169370   -3.283122
H      -0.861131   -0.574532   -2.071403
H       0.571926   -0.488533    0.601973
H      -1.147664   -0.305089    0.300114
