20

C      -0.048525    1.551900   -0.013695
C       0.002818    0.019785    0.011596
N       0.648913   -0.471155   -1.200238
C       0.868852   -1.917627   -1.233653
C       1.456091   -2.345314   -2.573560
C       1.782487   -2.302216   -0.061712
O       2.551716   -3.240059   -0.122091
C       1.596585   -1.513084    1.171436
C       0.743305   -0.484770    1.218687
H       0.962464    1.964143   -0.070067
H      -0.610523    1.901553   -0.885989
H      -0.543295    1.941002    0.881387
H      -1.042077   -0.350265    0.106557
H       0.112520   -0.188268   -2.013995
H      -0.072263   -2.484536   -1.062860
H       2.359877   -1.769158   -2.791045
H       1.719675   -3.403562   -2.544385
H       0.736288   -2.182160   -3.382533
H       2.148929   -1.851250    2.042598
H       0.554366    0.035813    2.154762
