16

O      -0.141969    1.417139   -0.068679
C      -0.010565    0.051932    0.278144
C      -1.354599   -0.636995    0.188442
N      -1.785407   -1.069697   -1.122303
C      -1.514883   -2.121360   -0.122913
C      -0.323066   -2.992390   -0.355984
O      -0.095452   -3.983672    0.292172
C      -2.705331   -2.758511    0.527474
O      -3.808322   -2.268506    0.463171
H      -0.422857    1.450484   -0.990295
H       0.725406   -0.459904   -0.356666
H       0.355609    0.028050    1.309103
H      -2.117385   -0.241254    0.857681
H      -2.801237   -0.989728   -1.194906
H       0.332289   -2.662378   -1.188275
H      -2.503292   -3.707314    1.055077
