18

C       0.146466    1.492110   -0.172807
O      -0.328107    0.207367   -0.519400
C       0.622928   -0.582218   -1.176711
C       1.732386   -1.280828   -0.317076
C       1.306143   -2.624116   -0.953445
O       1.765896   -3.728323   -0.960006
C       0.095553   -1.967451   -1.575409
C      -1.324285   -2.409284   -1.450117
N      -0.657494   -2.393098   -2.752129
H       0.986725    1.440538    0.534707
H       0.474916    2.054522   -1.060295
H      -0.681269    2.025474    0.299693
H       1.056962   -0.036147   -2.029308
H       2.770604   -0.984092   -0.478828
H       1.502495   -1.246544    0.752584
H      -1.530501   -3.399353   -1.054447
H      -2.045345   -1.635095   -1.205851
H      -0.940665   -1.569817   -3.280946
