16

C       0.649268    1.333319    0.869052
C       0.216945    0.125953    0.059525
O      -1.150657   -0.157272    0.404411
C      -1.709453   -1.209890   -0.224572
N      -1.111221   -1.930882   -1.069719
N      -3.034112   -1.320133    0.244333
C      -3.951944   -2.261621   -0.141689
O      -3.764068   -3.144931   -0.947147
H       1.688440    1.581308    0.633970
H       0.027617    2.203315    0.638755
H       0.577950    1.132515    1.941886
H       0.279415    0.306458   -1.018123
H       0.826085   -0.757116    0.276205
H      -1.730202   -2.663575   -1.410365
H      -3.313129   -0.631923    0.927717
H      -4.916212   -2.120022    0.381730
