18

O      -0.000857    1.431551   -0.157842
C       0.020190    0.018145    0.020478
C       0.620746   -0.461993    1.348227
C       0.103438    0.094087    2.624645
N      -0.397616   -1.193672    2.132738
C      -1.632514   -1.181019    1.344597
C      -2.374822    0.100022    0.992465
C      -1.416506   -0.525061    0.014977
O      -1.885555   -1.109160   -1.159417
H       0.905761    1.750859   -0.106371
H       0.550851   -0.464635   -0.811778
H       1.610447   -0.911336    1.315982
H       0.711773    0.022281    3.522239
H      -0.533714    0.970824    2.587444
H      -2.217785   -2.089258    1.429760
H      -3.427661   -0.037417    0.768155
H      -2.131425    1.051997    1.446107
H      -2.190165   -0.401319   -1.738307
