21

C       0.167346    1.598729   -0.327765
C       0.066791    0.126859    0.009624
C       1.235994   -0.821206   -0.043001
O       2.531088   -0.272985   -0.074760
C       2.810339    0.393873    1.153394
C       1.627656    0.151717    2.145979
C       2.045596   -0.747626    3.314781
O       1.092369    1.379552    2.644032
C       0.586727   -0.538918    1.280955
H       1.189411    1.970375   -0.247030
H      -0.157266    1.763116   -1.360951
H      -0.462276    2.202726    0.330989
H      -0.866935   -0.327988   -0.315829
H       1.180306   -1.771786   -0.563157
H       3.762872    0.011108    1.541098
H       2.914904    1.472707    0.986053
H       2.849379   -0.278773    3.896165
H       1.198223   -0.924795    3.983145
H       2.417756   -1.711805    2.954529
H       1.720870    1.743263    3.277168
H      -0.053975   -1.263379    1.770918
