16

N      -0.264387    1.285160    0.254103
C       0.076056   -0.086090   -0.092853
C       0.433221   -0.946171    1.170706
N      -0.804556   -1.690165    0.955688
C      -1.196710   -0.986937   -0.258870
C      -1.519342   -2.554175    1.713151
O      -2.616242   -2.973387    1.410981
C       1.048012   -0.196810   -1.188781
N       1.816831   -0.234000   -2.051882
H       0.576551    1.810201    0.480794
H      -0.690098    1.750802   -0.543428
H       1.344704   -1.544700    1.078324
H       0.460959   -0.349736    2.087625
H      -2.133185   -0.429346   -0.170685
H      -1.215246   -1.614706   -1.153947
H      -0.980625   -2.839153    2.639689
