20

C      -0.109546    1.333097   -0.536582
C       0.159762   -0.113769   -0.177666
O       1.282583   -0.721045   -0.966869
C       1.977998   -0.847636    0.285117
C       2.708510   -1.640831    1.414991
N       2.047639   -0.413480    2.141883
C       2.579048    0.399806    0.970102
C       0.790313   -0.740620    1.163793
C      -0.074614   -1.865234    1.701090
H       0.779474    1.961712   -0.491425
H      -0.499916    1.384436   -1.558468
H      -0.869245    1.746495    0.135246
H      -0.745513   -0.698498   -0.371730
H       2.313668   -2.611907    1.708584
H       3.799001   -1.605137    1.479038
H       3.666080    0.507936    0.968731
H       2.085208    1.362949    0.866558
H       0.359450   -2.329072    2.588972
H      -1.053838   -1.467175    1.990925
H      -0.247855   -2.644707    0.949769
