17

O      -0.344647    0.122600   -0.299465
C      -0.053228    1.254647   -0.030382
N       1.223946    1.777917    0.109542
C       2.451596    1.115848   -0.144654
O       2.547550    0.067178   -0.727705
N       3.525977    1.850609    0.322617
C       4.845775    1.291032    0.239130
C       5.610994    1.447190   -1.045049
C       5.999843    2.254229    0.168452
H      -0.805557    2.048489    0.161360
H       1.268441    2.756142    0.353985
H       3.356998    2.473237    1.099314
H       4.991477    0.363761    0.787511
H       6.246013    0.625323   -1.353152
H       5.111815    1.965785   -1.854405
H       5.766641    3.313478    0.160269
H       6.906825    1.996749    0.702922
