23

C      -0.508494    1.424989   -0.002266
C       0.010607   -0.012858   -0.033706
C       0.959443   -0.334008   -1.208091
C       1.614992   -1.665662   -0.800529
C       1.822230   -1.520810    0.704409
O       2.925508   -0.639633    1.023307
C       2.042158    0.352484    1.580556
C       0.782913   -0.479454    1.226850
C      -0.108049   -0.861758    2.398138
H       0.310404    2.149284    0.063199
H      -1.073923    1.653595   -0.911691
H      -1.175168    1.595495    0.849850
H      -0.858563   -0.681625   -0.122986
H       0.435886   -0.384410   -2.167161
H       1.725229    0.445642   -1.296981
H       0.933909   -2.504633   -0.992498
H       2.555372   -1.872761   -1.319211
H       1.908243   -2.473569    1.240118
H       2.208915    0.489601    2.657502
H       2.153851    1.323962    1.083376
H      -0.685864   -0.001675    2.756523
H      -0.822530   -1.642329    2.112674
H       0.479882   -1.237587    3.241986
