16

N      -0.145636    1.404593   -0.001716
C       0.055544    0.024527    0.023884
N      -0.956590   -0.806789    0.257541
N      -0.373182   -2.031007    0.312957
C       0.958225   -1.994609    0.078872
C       1.287773   -0.666263   -0.108659
C       1.767354   -3.227344    0.092688
C       1.781457   -4.139318    1.252967
O       1.020596   -4.451827    0.084671
H       0.396937    1.874258   -0.713907
H      -1.127362    1.631778   -0.097780
H      -0.938243   -2.860981    0.370901
H       2.267790   -0.252859   -0.284123
H       2.641479   -3.221822   -0.556851
H       2.648928   -4.773979    1.427519
H       1.199402   -3.877685    2.134463
