19

C      -0.199130    1.037057   -1.060285
C      -0.052184    0.169577    0.180395
O       1.101795   -0.693787    0.119619
C       0.984294   -1.782889   -0.670951
C       1.251106   -2.029910   -1.989963
N       1.014908   -3.357589   -2.282080
C       0.613168   -3.916315   -1.161891
C       0.247442   -5.351418   -0.982185
N       0.569995   -2.996978   -0.146576
H       0.695142    1.648967   -1.209114
H      -0.353265    0.420713   -1.950161
H      -1.061672    1.702647   -0.950910
H       0.110353    0.783851    1.070465
H      -0.952578   -0.437475    0.343718
H       1.608520   -1.334979   -2.733448
H       0.884421   -5.848191   -0.240714
H      -0.793004   -5.474089   -0.658526
H       0.372694   -5.860153   -1.938937
H       0.347165   -3.160741    0.821298
