25

C      -0.106670    1.582357    0.086721
C      -0.095808    0.056964   -0.062561
C       0.708097   -0.470723   -1.268792
C       0.222807    0.121015   -2.593950
O       2.085545   -0.086848   -1.167007
C       0.636477   -2.024329   -1.357361
C       1.304939   -2.762151   -0.192630
O      -0.739365   -2.369571   -1.475504
C      -0.993439   -3.632040   -2.044786
H       0.909040    1.987255    0.047068
H      -0.689465    2.066478   -0.702163
H      -0.550672    1.870828    1.044412
H       0.331074   -0.381870    0.849855
H      -1.116332   -0.331057   -0.132235
H       0.294623    1.210163   -2.582047
H       0.849633   -0.244895   -3.412827
H      -0.810909   -0.172137   -2.786188
H       2.374182   -0.251009   -0.263492
H       1.161861   -2.304168   -2.285187
H       0.795469   -2.564807    0.754724
H       1.288876   -3.842618   -0.360571
H       2.355191   -2.470282   -0.104511
H      -0.514937   -3.735859   -3.031101
H      -0.652442   -4.461573   -1.408390
H      -2.076214   -3.717159   -2.168653
