21

C      -0.156235    1.546719   -0.126679
C      -0.000087    0.024400   -0.037796
C       0.963468   -0.505430   -1.153040
C       2.302735   -0.612016   -0.448602
C       2.134775   -0.608502    0.869334
C       2.967267   -0.517403    2.111319
O       2.050214   -0.121485    3.141308
C       0.841327    0.367358    2.545072
C       0.683883   -0.469369    1.267492
H       0.812948    2.052094   -0.056533
H      -0.606656    1.825358   -1.084919
H      -0.799566    1.937572    0.668197
H      -0.990723   -0.428703   -0.143293
H       0.634593   -1.482512   -1.535028
H       0.994179    0.166501   -2.019540
H       3.246783   -0.672500   -0.978873
H       3.417148   -1.471998    2.412971
H       3.780029    0.217277    2.009392
H       0.045442    0.232895    3.282483
H       0.929756    1.439623    2.316775
H       0.278275   -1.450399    1.555189
