19

C       0.015184    1.548929   -0.052269
C      -0.063566    0.033411   -0.014710
O       0.727369   -0.469085   -1.092353
C       0.746183   -1.861261   -1.238308
C      -0.544045   -2.499285   -1.858632
N       0.112009   -2.493256   -3.183953
C       1.437959   -2.241116   -2.577782
C       1.265145   -2.532889   -0.036359
N       1.667820   -3.065266    0.907617
H       1.051035    1.881303    0.056824
H      -0.372309    1.932441   -1.000104
H      -0.574744    1.975750    0.764009
H       0.316931   -0.356217    0.939957
H      -1.104770   -0.304649   -0.120926
H      -0.761356   -3.490584   -1.442780
H      -1.443120   -1.877834   -1.797673
H       0.037729   -3.363154   -3.696975
H       1.994156   -1.412408   -3.025170
H       2.089655   -3.117275   -2.482784
