15

N      -0.565396   -0.124227   -1.203408
C      -0.681472   -0.709195    0.018452
N       0.456375   -1.407248    0.470590
C       1.607228   -1.699446   -0.204190
O       1.876472   -1.365414   -1.341230
N      -1.659773   -0.686490    0.850964
C      -2.830498    0.098757    0.513682
C      -3.535954   -0.342398   -0.705818
N      -4.034486   -0.689657   -1.690015
H       0.251115   -0.383879   -1.746779
H      -1.415388    0.074932   -1.707079
H       0.343406   -1.758552    1.410629
H       2.299165   -2.293320    0.418342
H      -3.538047    0.041848    1.346563
H      -2.589299    1.165484    0.376230
