14

O       0.012683    0.040508    0.085679
C       0.009490    1.241180    0.033222
C      -1.181059    2.151329    0.009270
C      -1.028452    3.503533    0.640970
C       0.459142    3.870126    0.813535
O       1.306362    2.799726    1.271698
C       1.211355    2.186573   -0.056009
C       0.612762    3.480026   -0.659924
N      -0.906115    3.336378   -0.847688
H      -2.173291    1.724121   -0.072376
H      -1.881468    4.001258    1.090832
H       0.687006    4.835659    1.264521
H       2.147526    1.746549   -0.396985
H       1.118469    4.042805   -1.438272
