14

N      -0.044907    1.201637    0.376194
C      -0.009277   -0.003526    0.009649
O       1.111710   -0.677937   -0.401953
C       0.769213   -1.939012   -1.031394
C       1.651456   -2.998416   -0.566936
C       2.366388   -3.895235   -0.213271
C      -0.705741   -2.155088   -0.700262
O      -0.951450   -2.130468    0.694645
C      -1.179778   -0.924356   -0.062394
H       0.879671    1.631058    0.307275
H       0.879242   -1.810117   -2.116818
H       2.998633   -4.684682    0.111903
H      -1.313734   -2.817098   -1.308310
H      -2.191618   -0.539867   -0.088931
