17

C       0.007281    1.478340    0.072868
C      -0.031577   -0.012813   -0.071174
N      -0.078046   -0.584275   -1.201559
C      -0.058118   -2.032559   -1.285695
C       0.456862   -2.702025    0.010932
C      -0.239751   -2.013552    1.196258
O       0.001622   -0.611137    1.158724
C       0.221919   -4.140564    0.022510
N       0.013714   -5.277662    0.026623
H       0.893393    1.778421    0.641076
H       0.026198    1.940670   -0.912817
H      -0.867353    1.827913    0.630551
H      -1.066382   -2.399686   -1.514261
H       0.575052   -2.323639   -2.129645
H       1.535582   -2.526205    0.099059
H      -1.319268   -2.204547    1.156975
H       0.142832   -2.366916    2.155331
