21

C       0.039712    1.362766    0.103275
O      -0.075258   -0.032796   -0.067507
C       0.615784   -0.551703   -1.189542
C       2.116284   -0.735803   -0.900090
O       2.777539   -1.355411   -1.990099
C       2.267033   -2.649671   -2.253998
C       0.782401   -2.600019   -2.640210
O       0.245275   -3.905218   -2.798374
C      -0.010311   -1.902245   -1.537496
H       1.068051    1.682428    0.325598
H      -0.305076    1.909349   -0.788143
H      -0.595842    1.634734    0.949670
H       0.511431    0.134818   -2.046475
H       2.616825    0.223818   -0.746588
H       2.224656   -1.333988    0.019980
H       2.871988   -3.059630   -3.070229
H       2.380219   -3.308417   -1.376714
H       0.689108   -2.022228   -3.574039
H       0.663588   -4.311914   -3.564058
H      -0.001455   -2.536674   -0.642484
H      -1.054736   -1.773914   -1.835734
