15

C      -0.892910    0.889743   -0.001633
C       0.205783   -0.167213    0.003789
C       1.096294   -0.105522   -1.236936
O       0.876942    0.547959   -2.211806
O       2.224947   -0.869199   -1.153373
C       2.367853   -1.646498    0.018610
O       2.197718   -0.885441    1.197598
C       1.067320   -0.122798    1.265533
O       0.825308    0.517134    2.244022
H      -0.459098    1.891718    0.010328
H      -1.502238    0.792115   -0.901253
H      -1.522909    0.779777    0.882187
H      -0.244627   -1.174233   -0.008383
H       1.662616   -2.488217    0.004627
H       3.393224   -2.012525    0.027961
