25

C       0.061703    1.603610   -0.031064
C       0.061158    0.079693    0.172303
C       0.729202   -0.294945    1.505360
C      -1.333338   -0.559638   -0.011865
C      -2.336969   -0.069088    1.030258
O      -3.594585   -0.697900    0.799340
C      -1.901832   -0.480643   -1.470013
C      -2.144075   -2.012990   -1.455445
C      -1.325045   -2.121218   -0.142259
H       1.087390    1.985634   -0.066094
H      -0.430405    1.885281   -0.967369
H      -0.449322    2.124769    0.785761
H       0.681201   -0.349625   -0.627577
H       0.233896    0.181437    2.358408
H       0.716459   -1.376666    1.672379
H       1.774555    0.031145    1.515627
H      -1.972099   -0.308097    2.040856
H      -2.440478    1.024649    0.962438
H      -4.213153   -0.379937    1.462388
H      -2.786268    0.145133   -1.608459
H      -1.139315   -0.172905   -2.191981
H      -3.195280   -2.261957   -1.306418
H      -1.763709   -2.573332   -2.313039
H      -0.315855   -2.515117   -0.296379
H      -1.794871   -2.674755    0.673739
