18

C      -0.198021    1.457937   -0.261326
C      -0.146156    0.009343    0.162279
N       1.113002   -0.723214   -0.055125
C       0.637239   -0.511621    1.314790
C       1.484613    0.333457    2.266053
C       2.108970   -0.540336    3.376309
O       1.771495   -1.665413    3.623373
C       2.543138    1.137776    1.667667
C       3.469279    1.786082    1.260223
H       0.748623    1.962890   -0.063063
H      -0.403577    1.532405   -1.334524
H      -0.998133    1.986703    0.268940
H      -1.066755   -0.540791   -0.035033
H       0.940782   -1.680292   -0.348983
H       0.216197   -1.365754    1.838424
H       0.810554    1.012554    2.818071
H       2.901493   -0.022788    3.956517
H       4.271372    2.358655    0.864254
