19

C       0.038608    1.458408    0.205888
C      -0.027570   -0.055674   -0.010804
C      -1.459460   -0.555522   -0.157275
O       0.652965   -0.455046   -1.203626
C       2.058949   -0.412350   -1.116582
C       2.650508   -1.017272   -2.300370
C       3.179317   -1.508335   -3.268384
C       3.762457   -2.103251   -4.441945
O       4.950945   -2.230544   -4.628711
H       1.065563    1.812956    0.334550
H      -0.401980    1.981618   -0.648656
H      -0.517913    1.736065    1.106431
H       0.446054   -0.562262    0.847660
H      -1.942613   -0.075479   -1.013958
H      -1.472051   -1.636378   -0.317865
H      -2.040135   -0.326611    0.740951
H       2.437710    0.619094   -1.026934
H       2.415580   -0.953334   -0.222054
H       3.017412   -2.447965   -5.187610
