21

C      -0.140136    1.406393    0.307202
C       0.072211   -0.081642   -0.005332
C      -1.223526   -0.871805    0.218040
C       0.595582   -0.315845   -1.439188
C       1.975528    0.252583   -1.673930
O       3.085217   -0.442065   -1.116938
C       3.014353   -0.357042   -2.545269
C       2.788166   -1.643371   -3.270076
O       3.074572   -1.803947   -4.429310
H       0.782851    1.987250    0.219199
H      -0.880544    1.847078   -0.371553
H      -0.509831    1.537577    1.329108
H       0.833033   -0.472512    0.683577
H      -2.013976   -0.530568   -0.461380
H      -1.074908   -1.942796    0.045347
H      -1.589529   -0.744610    1.241831
H       0.601452   -1.390752   -1.642525
H      -0.095794    0.139977   -2.161602
H       2.053996    1.336843   -1.575749
H       3.739072    0.302465   -3.021440
H       2.348052   -2.452664   -2.649265
