19

C       0.157698    1.454335    0.159299
N       0.105149    0.011502    0.024513
C       0.677596   -0.610669   -1.062653
O       1.108568   -0.018264   -2.038341
N       0.725099   -1.988450   -0.964150
C      -0.232289   -2.890653   -0.299809
C       0.101640   -3.962682   -1.362544
O      -1.054865   -4.487106   -1.962520
C       0.885637   -2.858278   -2.135845
H       0.988211    1.788290    0.795455
H       0.301209    1.870943   -0.838022
H      -0.779203    1.833694    0.579023
H      -0.010371   -0.531090    0.864903
H       0.005046   -3.136523    0.741066
H      -1.276185   -2.562095   -0.373411
H       0.754621   -4.755323   -0.977077
H      -0.788972   -5.120319   -2.637014
H       0.346425   -2.495250   -3.017764
H       1.924571   -3.071843   -2.403455
