13

C      -0.033240    1.504706   -0.024888
O       1.033737    1.956218    0.803797
C       2.050115    0.960322    0.868518
C       1.360256   -0.352848    0.566663
N       0.136610   -0.541854    1.373663
C       0.037450   -0.007197   -0.000596
H      -0.963030    1.909723    0.387689
H       0.079946    1.862542   -1.061548
H       2.841911    1.140836    0.122867
H       2.491852    1.006956    1.869248
H       1.936205   -1.210073    0.235268
H      -0.115732   -1.527570    1.361475
H      -0.437303   -0.589870   -0.782565
