15

N       0.108149    1.425381    0.126340
C      -0.018938    0.033660    0.011253
C      -1.085784   -0.827009   -0.033437
N      -0.653479   -2.143318   -0.048726
C       0.649994   -2.057811   -0.026024
N       1.507402   -3.156080   -0.052220
C       2.865911   -3.103101   -0.002265
O       3.522084   -2.078225    0.061560
N       1.103592   -0.774746    0.016693
H       0.529208    1.851799   -0.693957
H      -0.795170    1.856354    0.277414
H      -2.136062   -0.580574   -0.052117
H       1.042405   -4.050609   -0.097085
H       3.320614   -4.108479   -0.028319
H       2.079988   -0.528072    0.094023
