16

O       0.146639    0.067409    0.440440
C       0.126163    1.180425   -0.004625
C      -1.081860    2.180609    0.106601
C      -0.738028    3.369804   -0.790381
C       0.515387    4.284864   -0.704934
N       1.477681    4.106942    0.374177
C       1.817888    2.779808    0.398016
C       1.203558    2.062280   -0.602372
C       0.533971    3.056585   -1.540507
H      -2.022463    1.709537   -0.201153
H      -1.179836    2.420328    1.172436
H      -1.558894    3.848847   -1.315592
H       0.424562    5.291162   -1.095055
H       2.099177    4.856780    0.643311
H       2.318357    2.377256    1.272561
H       0.629118    2.979983   -2.618612
