11

O      -0.018174    0.007717   -0.325557
C       0.024529    1.147189    0.038938
C       1.331654    1.976179    0.064312
C       1.391595    2.822342   -1.230524
O       2.002371    2.484074   -2.202975
C       1.365165    2.835489    1.234831
C       1.343963    3.571972    2.184320
H      -0.871979    1.702562    0.383676
H       2.163675    1.268151    0.026014
H       0.814581    3.768739   -1.181598
H       1.347890    4.211437    3.032885
