15

O      -0.074748    1.409248    0.007992
C       0.017204    0.003030    0.021484
C       0.774122   -0.569956    1.220617
N       0.580585   -2.009483    1.369609
C      -0.419483   -2.541889    0.818217
O      -1.417730   -1.962489    0.081221
C      -1.423687   -0.533267    0.055522
C      -2.179281   -0.011984    1.209057
N      -2.779368    0.377240    2.115508
H       0.811897    1.778376    0.074145
H       0.464311   -0.381904   -0.908075
H       1.848894   -0.379286    1.118555
H       0.445442   -0.061124    2.135586
H      -0.595792   -3.613205    0.873741
H      -1.951157   -0.244761   -0.857290
