19

O      -0.225639    1.322666   -0.217858
C      -0.006490   -0.064996   -0.052158
C       0.274251   -0.500540    1.417436
C      -1.203607   -0.959362    1.572469
C      -1.387378   -0.808831    0.031588
O      -2.527288   -0.123392   -0.417554
C      -1.132806   -2.050404   -0.779115
C       0.044398   -2.018479   -1.405140
C       0.822444   -0.743968   -1.156712
H       0.539455    1.803507    0.112716
H       0.997538   -1.316539    1.484702
H       0.595125    0.308081    2.080049
H      -1.374971   -1.950257    1.999575
H      -1.819209   -0.230857    2.106411
H      -2.327248    0.817032   -0.316843
H      -1.857482   -2.855071   -0.836295
H       0.424736   -2.808169   -2.044952
H       0.863823   -0.115876   -2.056076
H       1.858621   -0.934748   -0.848884
