18

C      -0.153601    1.520200    0.021824
C       0.030135    0.004887   -0.011877
C       0.728445   -0.463272   -1.287324
N       0.992167   -1.887998   -1.193796
C       1.656589   -2.395278   -0.095906
N       2.282410   -3.502750   -0.137975
C       1.554198   -1.584285    1.194929
O       2.105602   -1.965512    2.210057
N       0.835790   -0.427973    1.127566
H       0.811732    2.032014   -0.039268
H      -0.777457    1.847517   -0.814874
H      -0.649349    1.832670    0.946604
H      -0.958075   -0.478044    0.027394
H       0.073591   -0.282577   -2.144115
H       1.646773    0.129513   -1.434122
H       1.217697   -2.373346   -2.051318
H       2.638817   -3.693805    0.800931
H       0.712594    0.042700    2.013819
