14

N      -0.032503    1.553871    0.201333
C      -0.040334    0.138730   -0.037465
C      -1.360854   -0.641256   -0.034166
C      -2.160095   -0.466492   -1.268502
C      -2.153495    0.757494   -2.035768
N      -2.157672    1.745126   -2.637923
N      -0.999942   -1.414320   -1.296466
C       0.195612   -0.550053   -1.419250
O       1.012204   -0.530016   -2.277453
H       0.912711    1.895208    0.331138
H      -0.445420    2.070687   -0.567787
H       0.644132   -0.344582    0.669925
H      -1.781580   -1.157067    0.820340
H      -3.107316   -0.995734   -1.315387
