16

N       0.039725    1.146897    0.709506
C      -0.032244    0.056571    0.098577
C      -1.149562   -0.867901   -0.333253
C      -0.007669   -1.715991   -0.913630
C       0.323517   -3.198294   -0.556626
C       0.404361   -3.481923   -2.063281
O      -0.861279   -3.100808   -2.620046
C       0.116302   -2.078053   -2.398549
O       0.969418   -0.744311   -0.430384
H       1.008165    1.456062    0.808449
H      -1.708857   -1.322001    0.486297
H      -1.846723   -0.449621   -1.061066
H       1.289520   -3.252115   -0.049024
H      -0.429290   -3.765571   -0.004992
H       0.979024   -4.229070   -2.596288
H       0.408966   -1.450861   -3.232416
