19

C      -0.317183    1.462081   -0.012619
N       0.061831    0.065315   -0.028123
C       0.732110   -0.404257   -1.259497
C       1.780734   -1.396821   -0.739519
C       2.950219   -0.731007   -0.010164
C       2.343847   -0.066715    1.182976
C       0.840857   -0.417605    1.093810
C       1.364427   -1.806685    0.698058
N       2.775118   -1.507697    1.260561
H       0.540283    2.154540   -0.111495
H      -1.008861    1.671108   -0.835607
H      -0.835235    1.695171    0.923724
H       0.005131   -0.859802   -1.944528
H       1.223750    0.419675   -1.801933
H       2.064114   -2.201039   -1.417407
H       3.931561   -0.475604   -0.393214
H       2.852239    0.700386    1.755102
H       0.304401   -0.336884    2.040762
H       0.854466   -2.734936    0.941796
