23

C       0.139841    1.588132   -0.293331
O      -0.285573    0.254640   -0.456492
C       0.645467   -0.567920   -1.121388
C       1.886437   -0.967394   -0.291311
C       2.167503   -2.414869   -0.754978
O       1.152031   -2.760325   -1.696249
C       0.006058   -1.930020   -1.482165
C      -0.862172   -2.478379   -0.340791
C      -0.774314   -1.880057   -2.790424
H       1.024491    1.665554    0.355784
H       0.380064    2.058087   -1.260077
H      -0.683526    2.136680    0.170673
H       0.966189   -0.078688   -2.055252
H       2.738651   -0.305893   -0.460982
H       1.634885   -0.923856    0.772433
H       3.131102   -2.518440   -1.263479
H       2.162958   -3.112711    0.094016
H      -0.307241   -2.530334    0.600537
H      -1.733826   -1.841167   -0.176571
H      -1.198269   -3.487881   -0.594026
H      -1.195703   -2.860567   -3.029953
H      -1.593727   -1.159637   -2.709855
H      -0.118262   -1.579026   -3.612108
