25

C      -0.138846    1.416277    0.011050
O      -0.016736    0.015863    0.002303
C      -1.262848   -0.648418    0.010633
C      -1.047943   -2.173251    0.000359
C      -0.267374   -2.557464   -1.271529
C      -0.243160   -2.571054    1.252832
C      -2.456744   -2.810009    0.010446
C      -2.514418   -4.334124    0.002886
O      -3.890724   -4.694920    0.014046
H       0.870854    1.834547    0.003662
H      -0.682955    1.785472   -0.873098
H      -0.665917    1.775825    0.909381
H      -1.839600   -0.357138    0.905989
H      -1.856587   -0.347562   -0.870338
H       0.662025   -1.986468   -1.330968
H      -0.013375   -3.621517   -1.281406
H      -0.853301   -2.343537   -2.172902
H      -0.811677   -2.366927    2.167528
H       0.010894   -3.635121    1.246366
H       0.687256   -2.000617    1.300586
H      -3.005934   -2.465534    0.896090
H      -3.022739   -2.456187   -0.860815
H      -2.012559   -4.734436   -0.890879
H      -1.995703   -4.743868    0.882643
H      -3.947474   -5.654725    0.009639
