21

C      -0.091785    1.493983   -0.043247
C      -0.023624    0.041599   -0.010267
C       0.049963   -1.163784    0.014679
C       0.070794   -2.578376    0.053751
C       1.146885   -3.376133   -0.033039
C       0.794383   -4.844148   -0.004003
C       1.716304   -5.703406    0.868970
C      -0.683636   -4.821147    0.470439
C      -1.207166   -3.402964    0.150072
H       0.474923    1.938010    0.783358
H       0.322703    1.891989   -0.976723
H      -1.125828    1.847188    0.037265
H       2.164534   -3.019948   -0.150231
H       0.847039   -5.238617   -1.032026
H       1.717727   -5.344976    1.904210
H       1.389036   -6.748651    0.873594
H       2.748443   -5.679400    0.503425
H      -1.285829   -5.611616    0.014472
H      -0.706601   -4.980503    1.554661
H      -1.895237   -3.017538    0.909002
H      -1.746219   -3.367388   -0.806151
