17

O       0.372538    1.253317   -0.545862
C       0.045087   -0.014707   -0.071399
C      -0.035776   -0.282988    1.455413
C      -1.253703   -1.204545    1.196197
C      -1.424819   -0.551823   -0.229101
C      -2.464423    0.521161   -0.211193
O      -2.305152    1.645544    0.228358
C      -3.857347    0.184736   -0.768554
O      -4.142888   -0.873351   -1.261559
H      -0.274426    1.866752   -0.171386
H       0.731445   -0.715395   -0.556207
H       0.839902   -0.716381    1.942728
H      -0.327819    0.625686    1.988411
H      -0.985185   -2.257876    1.097384
H      -2.099786   -1.123007    1.881064
H      -1.636268   -1.250371   -1.039860
H      -4.569844    1.030708   -0.669500
