15

C       0.045050    1.564358    0.047455
C       0.043196    0.042750   -0.055120
O       0.830591   -0.568148    0.949580
C      -1.401762   -0.526267   -0.037903
N      -2.163151   -0.031738   -1.186733
C      -1.377660   -2.002623    0.045991
N      -1.420750   -3.157936    0.048259
H       1.069497    1.939752   -0.014532
H      -0.554824    2.009685   -0.748372
H      -0.380293    1.884379    1.007878
H       0.506080   -0.264568   -1.001256
H       0.577873   -0.195027    1.801607
H      -1.893726   -0.155539    0.871143
H      -1.808972   -0.457515   -2.039415
H      -3.134781   -0.316390   -1.110310
