17

C      -0.015488    1.497657    0.040254
C      -0.039798    0.003833    0.027296
C      -0.143421   -0.826697   -1.037395
O      -0.130129   -2.136579   -0.644229
C      -0.015240   -2.155158    0.705835
C       0.021563   -3.477358    1.377796
C       0.045277   -0.870171    1.182775
C       0.166652   -0.474796    2.533716
C       0.269958   -0.115298    3.679556
H       0.911466    1.875719    0.485261
H      -0.095835    1.902487   -0.972046
H      -0.841239    1.902972    0.635280
H      -0.231390   -0.657768   -2.097998
H       0.869219   -4.079073    1.030624
H       0.115639   -3.333151    2.455812
H      -0.890732   -4.051782    1.180617
H       0.360970    0.196029    4.690278
