22

C       0.280053    1.575221    0.112887
C      -0.188566    0.134108   -0.119817
C       0.509933   -0.517376   -1.298107
C       1.864642   -1.169102   -1.138380
C       0.648477   -2.013695   -1.450069
C       0.084639   -3.030189   -0.456598
C       0.388054   -4.463285   -0.902692
O       0.523919   -2.818798    0.884116
H       1.354209    1.609550    0.324078
H       0.097852    2.200946   -0.768397
H      -0.244020    2.031481    0.958734
H      -0.021676   -0.466066    0.778918
H      -1.272821    0.130287   -0.296789
H       0.365600    0.016867   -2.235886
H       2.619957   -1.034072   -1.904875
H       2.258945   -1.212166   -0.127930
H       0.586425   -2.370263   -2.475614
H      -1.003913   -2.904242   -0.399502
H       1.470271   -4.616672   -0.998508
H      -0.000196   -5.177007   -0.171098
H      -0.064586   -4.680021   -1.875642
H       1.466686   -3.016953    0.911075
