18

C       0.034661    1.557384   -0.039906
C      -0.001345    0.018926    0.026842
C      -1.359322   -0.513118    0.018213
C      -2.494189   -0.918302    0.012551
C      -3.842510   -1.407991    0.041661
C      -4.381901   -2.140483   -1.164455
N      -4.101635   -2.882061    0.051189
C      -4.854157   -0.661916    0.865713
O      -4.675127    0.408631    1.379259
H       1.069088    1.912581   -0.021625
H      -0.439352    1.917521   -0.956697
H      -0.497966    1.993795    0.808721
H       0.559005   -0.400276   -0.818673
H       0.516842   -0.321702    0.932428
H      -5.435541   -2.045712   -1.414966
H      -3.706936   -2.212437   -2.011695
H      -3.205299   -3.357408   -0.019683
H      -5.815229   -1.215810    0.950554
