20

C       0.006839    1.546713    0.065741
C      -0.149776    0.027745   -0.060753
C       0.689422   -0.559501   -1.191907
C       2.254361   -0.571677   -1.066173
C       2.249362   -2.089210   -1.328853
C       1.416485   -2.790249   -0.279389
C       0.703884   -2.083954   -1.389556
C       3.176709   -2.781786   -2.159532
N       3.935846   -3.329277   -2.841733
H       1.047334    1.824521    0.266076
H      -0.298864    2.054180   -0.855795
H      -0.604715    1.941762    0.882272
H       0.120225   -0.449487    0.889447
H      -1.204232   -0.221338   -0.237564
H       0.414105   -0.072952   -2.133327
H       2.751917   -0.000663   -1.850552
H       2.671165   -0.280588   -0.096874
H       1.414093   -3.872808   -0.343151
H       1.417086   -2.399628    0.734542
H       0.080247   -2.629458   -2.087268
