12

O      -0.056255   -0.083460    0.004038
C       0.012155    1.126381    0.009243
N      -1.161723    1.920568    0.029146
C      -1.161524    3.274270    0.035888
N      -0.093702    4.007494    0.024996
C       1.096910    3.312494    0.005286
C       1.205475    1.952544   -0.002971
C       2.285988    4.124467   -0.006905
N       3.253069    4.758029   -0.016961
H      -2.033765    1.406281    0.038450
H      -2.137096    3.753299    0.051563
H       2.164828    1.452980   -0.018571
