19

O      -0.111097    1.360320    0.012171
C      -0.052155   -0.064191   -0.018035
C       0.637570   -0.580973   -1.284468
C      -0.046800   -0.079612   -2.571729
C       0.642748   -0.510392   -3.780627
C       1.233206   -0.878339   -4.760846
C       0.605487   -0.617329    1.259679
C      -0.138887   -0.219356    2.518528
O      -0.383014   -0.972425    3.426459
H       0.793424    1.694460   -0.015755
H      -1.105126   -0.374526   -0.037641
H       1.688485   -0.261066   -1.281790
H       0.647844   -1.676221   -1.274890
H      -1.084840   -0.436915   -2.592977
H      -0.105810    1.014079   -2.540124
H       1.742652   -1.196656   -5.636253
H       0.688949   -1.707735    1.233439
H       1.626134   -0.209016    1.329178
H      -0.454443    0.845356    2.547518
