17

O      -0.065523   -0.040625   -0.063507
C      -0.016224    1.157471    0.036391
C       1.272625    1.956719    0.041145
C       1.366647    2.879016    1.267667
C       2.740634    3.551788    1.263325
N       3.771256    2.537525    1.170181
C       3.639946    1.311439    0.556565
O       4.540419    0.492537    0.532685
N       2.412060    1.080658   -0.029949
H      -0.936507    1.777532    0.109322
H       1.202546    2.606053   -0.854231
H       0.574412    3.632738    1.239357
H       1.250580    2.286542    2.181574
H       2.793469    4.269409    0.428928
H       2.882911    4.122144    2.187031
H       4.694442    2.718107    1.526393
H       2.237807    0.122267   -0.294236
