17

O      -0.764843    0.808979   -0.014273
C       0.204973    1.051690   -0.690765
C       1.294828    2.025895   -0.356272
C       1.182456    3.536984   -0.778314
C       0.108114    3.727386    0.326521
C       1.274615    2.891675    0.931344
N       2.305654    3.762943    0.220584
C       2.539062    5.116537    0.715006
H       0.366109    0.520414   -1.657703
H       2.276357    1.612859   -0.606921
H       1.220468    3.942575   -1.791020
H      -0.025957    4.737890    0.708779
H      -0.850640    3.225086    0.204500
H       1.415404    2.550724    1.957649
H       3.181463    5.049511    1.599173
H       3.090284    5.671367   -0.051422
H       1.652068    5.707345    0.986925
