15

C       0.360433    0.954628   -0.593677
O      -0.155557    0.296503    0.565288
C       0.624082   -0.653686    1.087936
N       0.233831   -1.287826    2.110056
C       1.062218   -2.331706    2.676615
C       0.191484   -3.600491    2.834919
O       0.591741   -4.720297    2.703354
C       2.326139   -2.626192    1.982801
N       3.306666   -2.785933    1.393033
H       0.501249    0.248838   -1.419429
H      -0.385595    1.697137   -0.876164
H       1.308405    1.457744   -0.374150
H       1.579584   -0.814237    0.572483
H       1.312998   -2.039535    3.710277
H      -0.854688   -3.346923    3.099370
