20

C      -0.232185    1.500713   -0.048590
C       0.157913    0.029981    0.064249
N       0.671205   -0.470316   -1.204788
C       0.694987   -1.836911   -1.428866
O       0.178816   -2.628553   -0.652952
N       1.301926   -2.232141   -2.606516
C       1.515912   -3.648424   -2.836063
C       1.827579   -1.307588   -3.588269
H       0.629482    2.127084   -0.309368
H      -0.998563    1.644470   -0.816010
H      -0.624063    1.864638    0.905712
H       0.891400   -0.106223    0.873201
H      -0.703613   -0.587862    0.322901
H       1.399376    0.085313   -1.624441
H       1.070492   -3.959791   -3.789458
H       2.586763   -3.893769   -2.863432
H       1.042310   -4.196439   -2.023259
H       2.859154   -0.983778   -3.374975
H       1.834677   -1.793679   -4.568410
H       1.190325   -0.422702   -3.667634
