19

C       0.382980    0.490384    1.511573
C       0.047809    0.010295    0.085995
C      -1.318550   -0.626675    0.014228
C      -1.449306   -2.128528    0.065677
C      -1.052245   -2.785753   -1.280297
C      -1.100624   -4.244396   -1.219936
N      -1.141737   -5.397282   -1.152846
N      -2.420916    0.016355   -0.070657
O      -2.220746    1.404215   -0.111899
H       1.382138    0.934526    1.540071
H      -0.339191    1.242057    1.837445
H       0.362772   -0.338109    2.226749
H       0.079052    0.862972   -0.597928
H       0.804306   -0.709393   -0.244945
H      -0.808554   -2.529862    0.859219
H      -2.482079   -2.391842    0.302422
H      -1.728224   -2.440674   -2.069786
H      -0.040208   -2.486082   -1.574597
H      -3.121636    1.737010   -0.183001
