21

C      -0.063639    1.498849   -0.120923
C      -0.029077    0.004448    0.066315
O       1.269313   -0.624451   -0.000245
C       0.572935   -0.643293    1.235132
C       1.210878   -0.070137    2.516265
C       0.855363   -1.390809    3.233801
C       1.736339   -2.069919    4.241410
C      -0.627813   -1.611535    3.144932
C       0.225987   -1.934987    1.939850
H       0.712339    1.985997    0.475289
H       0.097364    1.761322   -1.172001
H      -1.038226    1.899510    0.179203
H      -0.803387   -0.550366   -0.467936
H       2.287811    0.056704    2.375122
H       0.791000    0.849634    2.938179
H       1.762692   -1.511841    5.185484
H       1.374554   -3.078756    4.466134
H       2.766731   -2.155636    3.878307
H      -1.002266   -2.475983    3.685292
H      -1.320447   -0.772702    3.117118
H       0.275944   -2.924612    1.501549
