16

C      -0.046168    1.506090   -0.039028
C       0.060425    0.007596    0.033717
N      -1.115880   -0.775118   -0.258894
C      -1.313292   -1.803726    0.652277
O      -2.243469   -2.551495    0.733215
O      -0.201317   -1.866725    1.453337
C       0.683063   -0.810814    1.151863
C       1.328351   -0.789892   -0.226750
O       1.328037   -1.898078   -1.053815
H       0.896400    1.968845    0.265219
H      -0.260723    1.840210   -1.060658
H      -0.837232    1.878589    0.620897
H      -1.911447   -0.401402   -0.749281
H       1.167410   -0.396562    2.028131
H       2.250756   -0.218017   -0.288178
H       0.431747   -2.003516   -1.400320
