19

C      -1.030177    1.045170    0.019519
C       0.316828    0.335321   -0.058619
O       1.037536    1.010518   -1.115267
C       2.218528    0.548251   -1.591023
O       2.745311    1.128478   -2.502062
C       2.828175   -0.666912   -0.911948
C       3.359852   -0.341816    0.495506
C       2.326039    0.093931    1.495547
C       1.042071    0.367261    1.270945
H      -0.892634    2.088107    0.319208
H      -1.526567    1.026054   -0.953059
H      -1.673676    0.551777    0.753811
H       0.142954   -0.702485   -0.373233
H       2.102619   -1.484876   -0.852862
H       3.649002   -0.994167   -1.551518
H       3.872232   -1.230146    0.887672
H       4.138930    0.429889    0.421080
H       2.694935    0.196029    2.514527
H       0.423387    0.660380    2.115692
