16

C      -0.078687    1.505743    0.201218
C       0.110063    0.033705   -0.125385
O       1.204268   -0.430417   -0.367039
C      -1.140668   -0.780846   -0.114987
C      -1.328481   -2.097415   -0.849988
O      -0.168120   -2.788694   -1.260740
C       0.476580   -3.111921   -0.109561
N      -0.074124   -2.819189    1.000588
C      -1.281471   -2.121088    0.653461
H       0.889521    2.007206    0.203589
H      -0.735355    1.978610   -0.538490
H      -0.560228    1.622955    1.178682
H      -2.057714   -0.201436   -0.069247
H      -2.176283   -2.259073   -1.502509
H       1.427592   -3.609074   -0.243279
H      -2.129177   -2.231188    1.317662
