19

C      -0.085100    1.297458   -0.575955
C       0.004753   -0.039675    0.173389
O       0.697376    0.100316    1.413256
C      -1.318437   -0.646763    0.353776
C      -2.418408   -1.107034    0.525940
C      -3.732125   -1.712275    0.721792
C      -3.867763   -3.059899    0.032224
C      -5.167866   -3.549589   -0.438161
O      -4.196163   -3.037885   -1.353502
H       0.916900    1.719957   -0.687618
H      -0.529744    1.159872   -1.565781
H      -0.706979    2.006530   -0.019730
H       0.630873   -0.726033   -0.409672
H       0.115206    0.580216    2.012777
H      -3.917961   -1.847553    1.796273
H      -4.519584   -1.048311    0.345080
H      -3.103346   -3.789716    0.300012
H      -5.355081   -4.620466   -0.499699
H      -6.054979   -2.930910   -0.305512
