16

C      -0.051163    1.494210    0.032027
C       0.006733    0.003859   -0.024556
N       0.025505   -0.689406   -1.098747
C       0.081485   -2.109494   -0.681002
C       1.233992   -2.801591   -1.244206
C       2.185431   -3.368912   -1.706530
C       0.084502   -2.095853    0.864089
N       0.104799   -3.113308    1.616939
N       0.035360   -0.736762    1.158395
H       0.819332    1.897218    0.561550
H      -0.066989    1.890130   -0.983020
H      -0.947709    1.830676    0.564283
H      -0.836026   -2.609126   -1.019519
H       3.023991   -3.876511   -2.114591
H       0.088581   -2.861375    2.606469
H       0.051015   -0.351932    2.088077
