18

C      -0.199022    1.563742    0.060139
C       0.052332    0.058737   -0.000994
O       0.795152   -0.329529   -1.162346
C       2.209668   -0.360421   -1.033425
C       2.605540   -0.901021    0.369383
N       1.510359   -1.758543    0.918588
C       0.759030   -0.511371    1.265289
C       2.134263    0.157432    1.368274
O       2.616209    1.081152    1.951249
H       0.732958    2.126763    0.160219
H      -0.711921    1.893367   -0.846949
H      -0.829453    1.808509    0.921659
H      -0.908463   -0.459458   -0.113029
H       2.566173   -1.031266   -1.821997
H       2.662449    0.628824   -1.199142
H       3.622457   -1.297347    0.405698
H       1.041824   -2.291238    0.186800
H       0.094812   -0.553563    2.131478
