18

N      -0.231085   -1.167688   -0.111427
C      -0.107195   -0.018390   -0.059406
C      -0.018622    1.413327   -0.003938
C       0.474192    2.118205    1.262095
C       0.957750    1.296394    2.454730
C       2.436729    0.924755    2.307309
O       2.706932    0.401936    1.017090
C       2.633002    1.392889    0.013987
C       1.314680    2.144696    0.012537
H      -0.820907    1.907206   -0.542715
H      -0.079194    3.019638    1.501924
H       0.816470    1.870183    3.375979
H       0.363531    0.381731    2.550813
H       3.073071    1.806158    2.494449
H       2.717567    0.145766    3.020539
H       3.446156    2.127787    0.145951
H       2.794741    0.877479   -0.937716
H       1.330660    3.065093   -0.563449
