18

N      -0.013150   -1.143847   -0.029110
C      -0.018957    0.013518   -0.006334
C      -0.003531    1.448754    0.017067
C       0.505857    2.172117    1.283050
C       1.310531    2.187050    0.042905
C       2.741116    1.732397   -0.289409
C       2.443179    2.173820   -1.756453
C       1.855018    3.307769   -0.859684
C       3.163907    3.210568   -0.014045
H      -0.834886    1.913223   -0.504356
H      -0.046084    3.059630    1.575310
H       0.821746    1.541590    2.107343
H       3.235656    0.821425    0.045861
H       3.311932    2.443470   -2.361688
H       1.729688    1.566183   -2.316752
H       1.332343    4.210168   -1.178627
H       3.110347    3.555294    1.020975
H       4.078555    3.546347   -0.508573
