15

C      -0.038367    1.548020   -0.019463
C       0.004931    0.045788   -0.039693
C      -0.068736   -0.702087   -1.205235
C      -0.020925   -2.091176   -1.129819
F      -0.091313   -2.821963   -2.248951
C       0.098839   -2.712397    0.097380
N       0.171329   -2.006616    1.233715
C       0.125583   -0.687262    1.157793
O       0.200236    0.009161    2.317216
H       0.867686    1.961253    0.436370
H      -0.134101    1.952962   -1.029728
H      -0.880204    1.908914    0.580983
H      -0.162916   -0.221611   -2.173308
H       0.137122   -3.794859    0.169209
H       0.277801   -0.651604    3.018987
