20

C      -0.025504    1.607453   -0.008900
C      -0.009113    0.079684    0.053269
C       0.648699   -0.563893   -1.185921
C       2.058607   -0.190298   -1.320501
C       3.215937    0.123740   -1.400921
C       0.523436   -2.085601   -1.189102
N       0.180790   -2.732193   -0.157141
O       0.826374   -2.557527   -2.425725
C       0.823872   -3.964895   -2.612260
H       0.988435    2.013234   -0.072751
H      -0.584592    1.966497   -0.880772
H      -0.500968    2.023481    0.884249
H       0.518385   -0.266146    0.945971
H      -1.027995   -0.311730    0.129071
H       0.124307   -0.213587   -2.086591
H       4.238126    0.398976   -1.483357
H       0.142454   -3.738456   -0.309872
H       1.546855   -4.456057   -1.950040
H      -0.172245   -4.390764   -2.439227
H       1.111608   -4.132774   -3.650526
