18

O      -0.511761    0.640801   -0.686148
C       0.108520    1.068243    0.253139
C       1.346534    1.936033    0.138947
C       1.471767    2.629087   -1.217487
O       2.714659    3.310326   -1.310117
C       3.091953    4.060765   -0.192986
C       2.236037    5.141036    0.409565
C       2.469664    3.834005    1.163808
N       1.398681    2.865744    1.265742
H      -0.186333    0.845730    1.303600
H       2.204014    1.248541    0.238514
H       1.456468    1.905800   -2.034899
H       0.625580    3.319045   -1.362688
H       4.161313    4.237092   -0.233679
H       2.724263    6.042993    0.762217
H       1.240966    5.297233    0.006236
H       3.124125    3.872490    2.031966
H       0.505280    3.331876    1.384115
