13

N      -0.401741   -0.736449   -1.035006
C      -0.151721    0.176552   -0.374064
C       0.140284    1.354533    0.448899
N       1.453431    1.906146    0.185529
C       2.026215    2.205997   -1.010036
C       3.241580    2.787799   -0.725323
C       3.307743    2.799351    0.684185
N       2.222402    2.266592    1.236294
H      -0.644736    2.102619    0.281734
H       0.123516    1.083887    1.507178
H       1.538593    1.970681   -1.942762
H       3.974310    3.141540   -1.431890
H       4.100406    3.168433    1.318089
