14

O       0.105764    1.433887    0.189167
C      -0.024260    0.042974    0.037043
C      -1.437324   -0.453443   -0.107758
C      -1.488290   -1.258971   -1.183696
N      -0.250547   -1.323199   -1.846916
C       0.649180   -0.459994   -1.265028
O       1.734155   -0.117656   -1.671041
C      -2.632633   -2.006733   -1.709100
O      -2.571398   -2.678527   -2.714815
H       0.977705    1.658221   -0.165254
H       0.456953   -0.497019    0.875717
H      -2.248602   -0.244987    0.573694
H      -0.145818   -1.743961   -2.757943
H      -3.565061   -1.900961   -1.119831
