15

N       0.022936   -1.117048   -0.081361
C       0.020621    0.039281   -0.028856
C       0.002990    1.469968    0.045411
C       0.398591    2.260441   -1.190170
C       1.308051    2.286383    0.010971
C       1.075364    3.404846    0.969337
C      -0.143948    3.358427    1.509221
C      -0.928866    2.143422    1.065959
H       0.710884    1.677574   -2.049240
H      -0.174209    3.153718   -1.415868
H       2.272170    1.795428   -0.052364
H       1.819044    4.170703    1.153912
H      -0.560818    4.096717    2.183895
H      -1.898326    2.404025    0.624883
H      -1.137662    1.469316    1.905489
