18

C       0.332317    0.704161   -1.051900
C      -0.108111    0.149410    0.290510
O       0.425317    0.472358    1.321109
C      -1.316565   -0.833396    0.287612
C      -1.468626   -1.513059    1.643929
O      -2.515786   -0.077920    0.063786
C      -1.102490   -1.911272   -0.792733
N      -2.209454   -2.207658   -1.520533
O      -0.014392   -2.436247   -0.946777
H       0.889030    1.629749   -0.902923
H       0.981314   -0.041921   -1.521799
H      -0.501029    0.874828   -1.742485
H      -1.500968   -0.757274    2.429457
H      -2.390618   -2.100217    1.662434
H      -0.617946   -2.172463    1.823906
H      -2.385316    0.493438   -0.701779
H      -3.093968   -1.803788   -1.260221
H      -2.174837   -2.984735   -2.159842
