18

C       0.026977    1.569353    0.100440
C      -0.017262    0.067221    0.067721
C      -1.134952   -0.626383   -0.234771
N      -1.294493   -2.002009   -0.078215
C      -0.969058   -2.911655   -1.185983
C      -0.094945   -2.828238    0.027025
C       1.270323   -2.156409    0.014711
C       1.237399   -0.654703    0.335903
O       2.248581   -0.088559    0.706572
H       0.808055    1.956190   -0.561826
H      -0.933684    1.999657   -0.195748
H       0.270994    1.929045    1.105771
H      -2.041330   -0.116572   -0.557837
H      -1.643090   -3.752650   -1.319103
H      -0.595523   -2.460405   -2.102203
H      -0.211447   -3.626165    0.756597
H       1.937457   -2.629501    0.738844
H       1.762413   -2.254088   -0.960585
