19

C      -0.036597   -1.194213   -0.077568
C       0.008123    0.004920    0.008259
C       0.057612    1.455890    0.076985
C      -0.349086    2.089243    1.439189
C       0.678061    1.456990    2.413131
C       1.682204    2.314727    1.631839
C       0.573033    3.387969    1.388848
C       1.100615    3.605434   -0.036309
C       1.475860    2.104208    0.066965
H      -0.078579   -2.252608   -0.150024
H      -0.543600    1.861280   -0.744632
H      -1.413000    2.134731    1.668200
H       0.560407    1.837653    3.432073
H       0.771681    0.368737    2.427217
H       2.687419    2.557484    1.974276
H       0.345971    4.188365    2.092245
H       0.423920    3.915511   -0.839722
H       1.980109    4.255913   -0.025208
H       2.230773    1.643784   -0.568028
