19

C      -0.393520    1.427131   -0.282793
C      -0.011698   -0.040646   -0.079838
C       0.768387   -0.295527    1.228334
O       0.095158    0.243005    2.368355
C       1.008407   -1.732180    1.411417
C       1.186776   -2.910222    1.575709
C       2.175879    0.383714    1.184628
C       2.779421    0.765163    2.515783
O       2.731375    0.556895    0.128866
H       0.494747    2.052176   -0.408250
H      -1.007470    1.536758   -1.181326
H      -0.962602    1.805531    0.570168
H      -0.909918   -0.668873   -0.055861
H       0.608194   -0.394908   -0.907376
H      -0.638950   -0.344192    2.578376
H       1.349901   -3.950805    1.715292
H       2.196276    1.574849    2.964259
H       2.730663   -0.076195    3.213087
H       3.811617    1.082925    2.365562
