16

C       0.009410   -1.171163   -0.049414
C       0.020019    0.031812   -0.010461
C       0.008003    1.461051    0.054366
C       0.392632    2.255239   -1.182012
C       1.307747    2.287882    0.017160
C       1.075267    3.413125    0.965913
C      -0.145133    3.370131    1.504510
C      -0.924732    2.150236    1.066125
H       0.005408   -2.231896   -0.087784
H       0.705564    1.672117   -2.040751
H      -0.175988    3.151220   -1.410288
H       2.275401    1.804050   -0.048526
H       1.817385    4.182081    1.147465
H      -0.562804    4.113246    2.174022
H      -1.893699    2.406936    0.620456
H      -1.136888    1.482424    1.910191
