15

O      -0.075840    1.394301    0.060045
C       0.011281   -0.000368    0.043473
C       0.937345   -0.544161    1.149681
C       2.253704    0.078237    1.086575
C       3.309368    0.647978    1.008838
C      -1.367128   -0.676345   -0.068043
O      -0.989997   -1.274448   -1.348880
C       0.231595   -0.645580   -1.354185
O       1.061421   -0.664652   -2.202316
H       0.827018    1.740957    0.068317
H       0.470370   -0.326227    2.118364
H       1.020560   -1.634204    1.065878
H       4.259205    1.119298    0.942633
H      -1.603280   -1.447194    0.668261
H      -2.191992    0.026991   -0.188542
