20

C       0.140770    1.602020   -0.008753
C       0.057136    0.077466   -0.020287
C       0.805131   -0.596454   -1.204059
C       1.226070   -1.964761   -0.686532
N       2.428213   -1.918425    0.159828
C       1.086384   -1.983924    0.809435
C       0.607146   -0.600922    1.262744
C       0.720109   -3.164103    1.531618
C       0.418354   -4.148171    2.155748
H       1.181616    1.934672    0.077202
H      -0.272064    2.030214   -0.928522
H      -0.416376    2.025911    0.833595
H      -0.998875   -0.211169   -0.104742
H       0.166605   -0.675632   -2.088770
H       1.694874   -0.022291   -1.485313
H       1.034524   -2.859708   -1.269507
H       2.849255   -2.845186    0.198791
H       1.455501   -0.043858    1.673792
H      -0.156445   -0.675503    2.040557
H       0.150258   -5.018303    2.701880
