17

O       0.096678    0.059678    0.262492
C       0.012023    1.233402    0.121134
C      -1.091772    2.333198   -0.060321
C      -0.723981    3.056360    1.253321
C       0.629318    3.137383    1.287111
C       1.009449    2.492847   -0.016120
C       2.048488    2.348496   -1.132276
C       0.823785    2.332768   -2.130912
C      -0.053335    3.000405   -1.011711
H      -2.143440    2.138549   -0.267671
H      -1.427678    3.269689    2.045618
H       1.262041    3.456459    2.103371
H       2.671367    3.238339   -1.259881
H       2.686795    1.462436   -1.110228
H       0.930928    2.918431   -3.044728
H       0.522297    1.317751   -2.399506
H      -0.151601    4.084179   -1.109580
