16

O      -0.303685    1.448703    0.274558
C      -0.099128    0.080226    0.135434
C       1.059749   -0.404970    0.987284
C       2.344883    0.142110    0.546275
N       3.361286    0.558091    0.188927
C      -1.261267   -0.895100   -0.012521
C      -2.328978   -0.220436   -0.861970
O      -1.346584    0.137093   -1.885507
C      -0.331649   -0.585662   -1.182231
H      -0.555204    1.779469   -0.598966
H       0.886975   -0.109781    2.028328
H       1.117852   -1.498373    0.966195
H      -1.386820   -1.788330    0.585460
H      -3.066743   -0.911554   -1.279277
H      -2.824034    0.659280   -0.438807
H       0.379864   -1.163593   -1.762423
