18

C      -0.087902    1.503981    0.021809
C       0.022218   -0.016673   -0.003110
C       1.026426   -0.583109   -1.064102
C       1.982567   -1.301720   -0.094794
C       1.040043   -2.076547    0.850163
C       0.750433   -0.607233    1.245014
O       2.151165   -0.297775    0.965823
C       0.277481   -0.226955    2.561145
N      -0.138685    0.061848    3.599719
H       0.896193    1.952801    0.185275
H      -0.480266    1.877090   -0.929174
H      -0.757708    1.841947    0.818779
H      -0.969713   -0.467756   -0.102962
H       0.561945   -1.260776   -1.784813
H       1.536607    0.214512   -1.608562
H       2.921749   -1.707868   -0.465539
H       0.227521   -2.674605    0.432356
H       1.579100   -2.606045    1.634752
