17

O       0.039585   -0.034853   -0.043079
C       0.046845    1.165933    0.021587
C       1.274319    2.010254    0.010821
C       1.797390    2.988786    1.111307
C       2.857774    2.859790   -0.008896
O       2.609799    1.392663   -0.034957
C       1.751204    3.033139   -1.053917
C       1.743550    3.013288   -2.534649
C       1.137475    4.188001   -1.764855
H      -0.893372    1.760511    0.093999
H       1.287275    3.946495    1.232071
H       2.057843    2.502876    2.051989
H       3.895471    3.191319   -0.026577
H       2.680438    3.176881   -3.057001
H       1.064501    2.336420   -3.042447
H       0.056969    4.290711   -1.767062
H       1.671870    5.132817   -1.774116
