17

C      -0.087538    1.297807    0.188186
N       0.006431   -0.139655    0.018499
C       0.643118   -0.580582   -1.001687
N       1.283812    0.109977   -1.979020
C       0.762090   -2.090423   -1.201892
O       1.317603   -2.547893   -2.176985
N       0.172914   -2.779511   -0.172611
C       0.058568   -4.149301    0.020732
N       0.517203   -5.023361   -0.775000
H       0.904315    1.772805    0.244722
H      -0.635219    1.777730   -0.639078
H      -0.623218    1.525795    1.112363
H       1.126799    1.093093   -2.108519
H       1.624663   -0.442339   -2.752278
H      -0.231318   -2.151513    0.516237
H      -0.480475   -4.357596    0.953515
H       0.308525   -5.953703   -0.415448
