22

C      -0.039885    1.571307   -0.081758
C       0.062662    0.039363   -0.014859
C       0.698874   -0.411485    1.308156
C      -1.323860   -0.590603   -0.178937
O       0.800577   -0.474695   -1.139250
C       2.174858   -0.151034   -1.264493
C       2.585986   -0.625430   -2.652336
O       1.815005    0.001199   -3.657385
H       0.928419    2.056066    0.071546
H      -0.431400    1.884421   -1.054199
H      -0.716477    1.939007    0.695777
H       0.059459   -0.129612    2.150185
H       0.823999   -1.498440    1.320640
H       1.676918    0.051476    1.468824
H      -1.763376   -0.296288   -1.136409
H      -1.249741   -1.681397   -0.158759
H      -1.994572   -0.270253    0.623435
H       2.340524    0.932301   -1.187069
H       2.782884   -0.651681   -0.496303
H       3.634921   -0.369743   -2.835898
H       2.491249   -1.722406   -2.697558
H       0.900482   -0.087429   -3.362471
