17

C      -0.080040    1.487709   -0.422256
C       0.052370    0.035701   -0.009659
O       1.104609   -0.484250    0.266284
C      -1.260809   -0.752297    0.052815
O      -1.069974   -2.161617    0.176158
C      -1.464413   -2.156535    1.559896
C      -1.990077   -0.698602    1.446034
C      -1.596642    0.274011    2.440972
C      -1.266570    1.076895    3.273160
H       0.887027    1.984420   -0.337632
H      -0.436903    1.554277   -1.456778
H      -0.815535    1.996566    0.210204
H      -1.896623   -0.494442   -0.803657
H      -2.212879   -2.923207    1.782068
H      -0.604836   -2.260835    2.230125
H      -3.073516   -0.677964    1.302488
H      -0.969381    1.779958    4.011834
