16

O      -0.002993    0.054086    0.066136
C      -0.047977    1.250558    0.040430
C      -1.239860    2.202159    0.007876
N      -0.837247    3.041089    1.208143
C       0.248204    3.535079    0.293795
C      -0.648522    3.332561   -0.942160
O       0.112448    2.947384   -2.058327
C       1.364592    2.447136   -1.540430
C       1.104306    2.278962   -0.030890
H      -2.243733    1.786248   -0.039468
H      -1.523308    3.791451    1.299095
H       0.764126    4.461642    0.541636
H      -1.362449    4.114914   -1.203960
H       1.606048    1.503728   -2.037945
H       2.164956    3.171463   -1.742189
H       1.979135    2.060861    0.578116
