17

C      -0.009679    1.343643    0.166926
O      -0.070719   -0.058134    0.250585
C      -1.289426   -0.577677   -0.248192
C      -1.240007   -2.079482   -0.168418
C      -1.529552   -2.769508    1.150908
C      -2.502730   -2.873591    0.005728
O      -3.706879   -2.159543    0.047423
H       0.956752    1.655848    0.570990
H      -0.089955    1.697959   -0.873883
H      -0.810645    1.826159    0.750703
H      -2.143735   -0.193558    0.328390
H      -1.436680   -0.256300   -1.293889
H      -0.475532   -2.530848   -0.793790
H      -0.946746   -3.639711    1.431833
H      -1.816360   -2.125770    1.976117
H      -2.563005   -3.825573   -0.521824
H      -4.271020   -2.571820    0.709570
