19

C      -0.071218    1.497818   -0.160708
C       0.014334    0.008758    0.190966
C      -1.332840   -0.680218    0.086968
O      -1.916648   -0.631632   -1.254850
C      -2.174718   -2.024229   -1.216661
C      -0.885495   -2.811038   -1.133325
C      -1.440708   -2.208769    0.120217
C      -3.455758   -2.587263   -1.659519
O      -4.362706   -1.958841   -2.144882
H       0.910872    1.974072   -0.092304
H      -0.446741    1.629384   -1.179098
H      -0.749185    2.026915    0.517762
H       0.732983   -0.491901   -0.466996
H       0.379787   -0.121543    1.218034
H      -2.048271   -0.230741    0.788111
H      -0.985898   -3.889769   -1.201739
H      -0.015873   -2.393738   -1.630479
H      -1.739260   -2.800496    0.975086
H      -3.515732   -3.689644   -1.500908
