13

N      -0.009764    1.299387    0.149342
C       0.002397   -0.071885    0.057360
N      -1.130210   -0.788975    0.037402
N      -0.607633   -2.056498    0.013112
C      -0.995865   -3.384797   -0.020939
C       0.160182   -4.086008   -0.041597
O       1.256965   -3.228734   -0.021418
C       0.736148   -1.993660    0.011485
N       1.193191   -0.764187    0.037867
H       0.821684    1.736244   -0.218592
H      -0.868095    1.727602   -0.163885
H      -2.020511   -3.711094   -0.026322
H       0.382996   -5.136677   -0.067752
