21

C      -0.493078    1.436509    0.118078
C      -0.073694    0.006664   -0.015373
C      -0.169903   -0.773906   -1.092879
C       0.384430   -2.157492   -0.875319
C       0.634698   -2.218153    0.653999
C       1.948011   -2.914232    1.050111
C       0.580202   -0.732155    1.133061
C      -0.494745   -2.965264    1.358736
O      -1.398470   -3.557238    0.830650
H       0.357943    2.077780    0.382517
H      -0.927217    1.816445   -0.810622
H      -1.235039    1.561379    0.917257
H      -0.583806   -0.457944   -2.045036
H      -0.308919   -2.946913   -1.183146
H       1.315972   -2.309319   -1.437471
H       2.802361   -2.363383    0.644716
H       2.065992   -2.959455    2.138930
H       1.989110   -3.938092    0.664071
H       1.589109   -0.342955    1.332058
H       0.028107   -0.617752    2.077347
H      -0.413016   -2.927996    2.472053
