18

C      -0.019688    1.531593   -0.042004
C       0.056489    0.014220   -0.067326
C      -1.167198   -0.648407    0.549538
C       0.695303   -0.761027   -1.172092
C       1.900511   -0.031321   -1.782380
C       2.542063   -0.057028   -0.367734
O       3.642388    0.203293    0.031311
C       1.356660   -0.741548    0.241326
H       0.868929    2.014288   -0.452858
H      -0.887430    1.879978   -0.614257
H      -0.138787    1.886482    0.987410
H      -2.073989   -0.352752    0.010096
H      -1.096175   -1.739708    0.517267
H      -1.289678   -0.348143    1.595649
H       0.206171   -1.612020   -1.629837
H       2.488878   -0.664060   -2.453949
H       1.731143    0.934684   -2.264640
H       1.385018   -1.491494    1.023218
