17

O       0.493251    0.784274   -0.654077
C       0.197811   -0.281153    0.190228
C      -0.040633   -0.045790    1.712365
C      -1.263187   -1.002586    1.628703
C      -1.265512   -0.833714    0.097935
O      -2.172767    0.172081   -0.436859
C      -2.607460   -0.671782   -1.531875
C      -1.749400   -1.809813   -0.962033
O      -1.552995   -2.958578   -1.218456
H      -0.330866    1.283959   -0.746925
H       0.929325   -1.075347    0.012377
H       0.770961   -0.306803    2.394082
H      -0.345619    0.987278    1.898289
H      -1.024585   -2.033480    1.903534
H      -2.185160   -0.698773    2.126708
H      -3.690518   -0.837261   -1.529303
H      -2.288676   -0.295840   -2.511283
