21

C       0.005082    1.555075   -0.001842
C       0.043628    0.024445    0.007716
C       0.734156   -0.536847   -1.242906
O       0.761668   -1.959106   -1.240501
C       1.490337   -2.466292   -0.141997
C       0.839659   -2.056273    1.185120
O       1.627534   -2.453995    2.305136
C       0.729161   -0.527426    1.267137
O       2.024690    0.044491    1.370633
H       1.016303    1.968852    0.022126
H      -0.502368    1.928691   -0.897276
H      -0.532480    1.936706    0.872169
H      -0.984749   -0.360964    0.011193
H       0.189075   -0.248128   -2.146160
H       1.757418   -0.137641   -1.312787
H       1.500524   -3.557296   -0.248921
H       2.530394   -2.105316   -0.151338
H      -0.169614   -2.490482    1.241290
H       1.832965   -3.390713    2.224464
H       0.131309   -0.267134    2.156111
H       2.500198   -0.498560    2.011797
