15

N      -0.030100    1.489386    0.039280
C       1.474123    1.441288   -0.009716
C       1.981566    1.241442    1.391386
C       1.524900    0.130566    1.987588
C       0.812973   -0.786122    1.042205
O       1.784281   -1.097619   -0.022439
C       1.299076    0.012438   -0.746875
C      -0.058781    0.039762   -0.043651
H      -0.395402    1.893306    0.901457
H       1.934397    2.262305   -0.560806
H       2.613159    1.979059    1.874928
H       1.709061   -0.136475    3.021702
H       0.388532   -1.694049    1.471088
H       1.503626   -0.020381   -1.816882
H      -0.981404   -0.440012   -0.374046
