17

C      -0.047584    1.513309   -0.004860
C      -0.021915    0.001616    0.054581
C      -1.384409   -0.709599    0.025398
O      -1.113576   -2.070135    0.379520
C       0.162237   -2.096003    0.961860
C       1.386379   -1.703496    0.117045
C       0.729190   -0.763800    1.193553
C       0.958839   -0.719092   -0.913386
O       1.365390   -0.425467   -2.004319
H       0.959852    1.929448    0.083520
H      -0.456301    1.846677   -0.963451
H      -0.665973    1.932645    0.795885
H      -2.076419   -0.258746    0.752618
H      -1.849929   -0.693268   -0.964899
H       0.305850   -2.923031    1.646725
H       2.311404   -2.266461    0.154923
H       1.177952   -0.348312    2.084659
