20

C      -0.349051    1.508428   -0.114746
C       0.049095    0.036953   -0.084632
C       1.125978   -0.584005   -1.017184
O       1.267602   -0.597911   -2.206751
C       1.816469   -1.278648    0.144615
N       2.214629   -0.287587    1.137328
C       2.825026    0.985691    0.762483
C       0.811717   -0.615920    1.096666
C       0.157426   -1.183026    2.322610
H       0.472837    2.175472    0.150601
H      -0.691930    1.779601   -1.118574
H      -1.172482    1.701729    0.580688
H      -0.846400   -0.571780   -0.282484
H       2.282506   -2.258646    0.152269
H       2.506022    1.396882   -0.203401
H       2.617590    1.721564    1.545437
H       3.908394    0.836903    0.718627
H      -0.228441   -0.381766    2.963837
H      -0.685289   -1.829235    2.055377
H       0.879453   -1.759844    2.905595
