19

C      -0.075217    1.513911    0.133919
C      -0.031995    0.007141    0.068094
C       1.279954   -0.679421   -0.292111
C       0.747100   -0.800858    1.101666
O       1.483435   -0.210194    2.125651
C      -0.053355   -2.032025    1.399518
O      -1.328464   -1.717198    1.993495
C      -1.275814   -2.003336    0.589083
C      -1.307685   -0.761010   -0.293923
H       0.843774    1.908384    0.576596
H      -0.190390    1.957390   -0.861695
H      -0.917455    1.854989    0.747388
H       1.272953   -1.549576   -0.942410
H       2.143878   -0.033614   -0.408440
H       0.863231    0.015207    2.829789
H       0.417759   -2.945231    1.755514
H      -1.789848   -2.912266    0.287145
H      -2.205095   -0.167948   -0.083992
H      -1.341870   -1.040970   -1.354121
