20

C      -0.139634    1.388144    0.017877
O       0.025591   -0.006345   -0.036358
C       0.637781   -0.532517    1.121680
C       0.763789   -2.048280    0.961409
C       1.389043   -2.703570    2.158037
C       2.665001   -3.217927    2.237170
N       2.855768   -3.702770    3.506888
C       1.719890   -3.510308    4.250291
C       0.794321   -2.892641    3.443689
H       0.824693    1.912976    0.115677
H      -0.616792    1.700574   -0.914671
H      -0.778638    1.693676    0.862466
H       1.634800   -0.084420    1.272328
H       0.040069   -0.292074    2.017512
H      -0.237802   -2.453328    0.773895
H       1.356741   -2.251338    0.063136
H       3.443492   -3.280473    1.493111
H       3.693864   -4.148275    3.835301
H       1.666634   -3.831004    5.278269
H      -0.206706   -2.609593    3.733756
