16

C       0.107894    1.581672    0.058681
C      -0.068571    0.100078   -0.044793
C       0.342363   -0.747837   -1.282099
C      -0.601327   -1.810877   -0.729197
C      -0.466882   -1.663156    0.819749
O       0.502789   -0.654182    1.068890
C      -1.403019   -0.796624    0.050640
O      -2.748211   -0.549845    0.034522
H       1.173178    1.837953    0.045963
H      -0.376357    2.084580   -0.783513
H      -0.321983    1.964327    0.989215
H      -0.038328   -0.318576   -2.212576
H       1.409512   -0.975455   -1.367419
H      -0.948280   -2.730977   -1.181205
H      -0.594836   -2.472697    1.525740
H      -3.004025   -0.189051    0.891678
