19

C       0.237683    1.260691   -0.220869
O      -0.103226   -0.060021    0.143954
C       0.628068   -0.603609    1.217434
C       0.091544   -0.122762    2.565475
C       0.798272   -2.115262    1.120403
C       2.037002   -2.309978    0.235547
O       2.485936   -1.027149   -0.208610
C       2.197188   -0.562633    1.133617
C       2.214825   -2.032390    1.687111
H       1.279904    1.328150   -0.559688
H      -0.416813    1.536582   -1.051234
H       0.079682    1.981338    0.595197
H      -0.963563   -0.393177    2.665577
H       0.643529   -0.564812    3.399427
H       0.168495    0.966124    2.650368
H       0.051941   -2.883947    1.274851
H       2.231309   -3.180030   -0.376613
H       2.792432    0.292620    1.447674
H       2.713284   -2.531973    2.504870
