17

N      -0.108311   -1.206194   -0.047509
C      -0.079653   -0.050693   -0.013983
C       0.003682    1.402740    0.026826
C      -0.172157    2.101698    1.383746
C       0.940605    1.801666    2.301939
N       1.152784    2.831725    1.261409
C       1.397490    2.071703    0.009734
C       2.722305    1.516735   -0.394908
C       2.096269    2.670174   -1.160193
H      -0.650777    1.827546   -0.738584
H      -1.081224    2.607671    1.687390
H       0.880220    2.219024    3.301716
H       1.473235    0.857237    2.225661
H       3.568448    1.736353    0.247471
H       2.745342    0.537285   -0.861020
H       1.701848    2.478699   -2.152770
H       2.520164    3.658202   -1.017912
