16

C       0.181663    1.548436    0.162071
C       0.125879    0.030416   -0.015204
N       0.930014   -0.370951   -1.165806
C       1.818963   -1.240014   -1.065251
C       2.727632   -1.742511   -2.161197
O       3.547951   -2.712757   -1.505507
C       3.204573   -2.811041   -0.203236
O       3.705491   -3.531540    0.592536
O       2.172958   -1.943671    0.079529
H       1.198138    1.876514    0.399707
H      -0.133767    2.055268   -0.753958
H      -0.476670    1.859029    0.978779
H       0.432845   -0.476144    0.907545
H      -0.907192   -0.270809   -0.227640
H       2.170684   -2.219324   -2.972250
H       3.355111   -0.947900   -2.573407
