19

C       0.026722    1.562883   -0.297875
C       0.039949    0.072316    0.043718
O       0.776923   -0.194133    1.231916
C      -1.376454   -0.529512    0.138857
C      -1.459743   -2.061382    0.109198
O      -2.689682   -2.389895    0.763025
C      -2.844592   -1.498933    1.847257
C      -2.067172   -0.236359    1.473593
O      -1.966033    0.759853    2.146472
H       1.051283    1.942681   -0.333792
H      -0.442315    1.739524   -1.271553
H      -0.532305    2.123337    0.457119
H       0.581675   -0.468749   -0.742277
H       0.412066    0.374963    1.920816
H      -2.016546   -0.121109   -0.655144
H      -1.500900   -2.484577   -0.896215
H      -0.600708   -2.491958    0.645887
H      -3.906838   -1.293058    2.012497
H      -2.423361   -1.899919    2.784603
