20

C      -0.031259    1.590036    0.065895
C       0.091356    0.065644    0.012970
C       0.616499   -0.443311   -1.336943
C       0.774569   -1.962389   -1.363693
C       1.421530   -2.690776   -2.547170
C       2.866052   -2.439306   -2.636405
N       2.395548   -3.445921   -1.632836
C       1.877125   -2.647587   -0.529682
O       2.209987   -2.645327    0.614361
H       0.940221    2.071462   -0.092217
H      -0.714073    1.962649   -0.706156
H      -0.412166    1.923351    1.035953
H       0.756310   -0.286524    0.809559
H      -0.887904   -0.390055    0.210959
H      -0.068217   -0.142730   -2.141200
H       1.577866    0.036801   -1.557968
H      -0.179253   -2.440349   -1.105965
H       0.879868   -3.238174   -3.309071
H       3.420507   -2.900718   -3.446892
H       3.291278   -1.506787   -2.274839
