16

C      -0.037688    1.294138    0.400537
C      -0.084875   -0.052250   -0.267671
O       0.831518   -0.517245   -0.911976
C      -1.362956   -0.871021   -0.103093
N      -2.298971   -0.404573    0.632055
N      -1.304402   -2.036462   -0.819500
C      -2.319705   -3.052506   -0.778181
C      -2.342590   -3.837162    0.474299
N      -2.356358   -4.448714    1.454024
H       0.923753    1.765986    0.197351
H      -0.859755    1.919888    0.041449
H      -0.193032    1.180976    1.477127
H      -3.096426   -1.036085    0.718132
H      -0.397317   -2.242611   -1.214960
H      -3.311098   -2.602805   -0.917845
H      -2.168301   -3.740938   -1.614296
