16

N       0.068594    1.342868    0.080722
C      -0.389210    0.105970   -0.351549
O      -0.816217   -0.071787   -1.484247
N      -0.274433   -0.890569    0.585702
C      -0.622668   -2.233263    0.389003
C      -0.544488   -3.291219    1.268801
C      -1.027126   -4.434355    0.566009
C      -1.378135   -4.031133   -0.698821
N      -1.125941   -2.681320   -0.797039
H      -0.201993    2.087381   -0.543951
H      -0.033245    1.573375    1.057782
H       0.208662   -0.692165    1.446133
H      -0.189183   -3.249862    2.287024
H      -1.105369   -5.437255    0.956098
H      -1.783114   -4.576518   -1.535030
H      -1.254231   -2.058980   -1.581216
