13

O       0.105090    1.352728    0.117578
C       0.069568    0.006320    0.037223
C       0.072408   -0.689363   -1.171963
C       0.033286   -2.083984   -1.126905
N      -0.006975   -2.804546    0.000530
C      -0.008715   -2.113236    1.142456
C       0.027888   -0.726992    1.223808
C       0.035675   -2.817196   -2.368248
N       0.038926   -3.370052   -3.384022
H       0.131664    1.734170   -0.767488
H       0.103899   -0.172750   -2.125331
H      -0.041503   -2.704883    2.053413
H       0.024652   -0.214357    2.177928
