18

O       0.273460    1.307301   -0.452026
C       0.007291   -0.024458    0.003620
C       0.854073   -0.313482    1.210892
C       0.622102   -1.045624    2.309643
C      -0.556042   -1.796046    2.714215
C      -1.788391   -1.789684    2.185635
C      -2.298190   -0.964284    1.073700
N      -2.179512    0.521072    1.159377
C      -1.499323   -0.191581    0.077499
H      -0.077808    1.890821    0.232278
H       0.364968   -0.663589   -0.816820
H       1.835932    0.144642    1.112124
H       1.453012   -1.123228    3.008183
H      -0.398987   -2.445965    3.572083
H      -2.530480   -2.446040    2.633594
H      -3.248116   -1.324357    0.682344
H      -3.036801    0.952977    0.825024
H      -1.945636   -0.119825   -0.914527
