17

C       0.022103    1.469694   -0.035526
C      -0.052665   -0.029090    0.012839
C       0.220313   -0.847121    1.214718
C      -0.198183   -2.227306    0.658003
C       1.113343   -2.179280   -0.149607
N       1.287581   -0.720549    0.162761
O      -1.294296   -1.991973   -0.238455
C      -1.126862   -0.732276   -0.758861
N      -1.804439   -0.227121   -1.696405
H       0.867469    1.824497    0.557847
H       0.151752    1.801487   -1.068829
H      -0.901327    1.915143    0.344859
H       0.326483   -0.500215    2.235473
H      -0.441273   -3.069734    1.301182
H       1.933548   -2.724823    0.322904
H       1.044089   -2.438297   -1.210689
H      -2.502120   -0.889703   -2.038557
