15

C      -0.207976    1.547266    0.011073
C       0.061703    0.046661   -0.018762
C       0.877619   -0.505992   -1.193937
O       1.449183   -1.728634   -0.722476
C       1.817857   -1.538022    0.628961
C       0.890694   -0.447567    1.172350
O       0.846796   -0.041548    2.303244
H       0.719913    2.115105   -0.114251
H      -0.898167    1.845195   -0.783288
H      -0.642597    1.828034    0.974017
H      -0.887553   -0.506528    0.032188
H       0.285452   -0.741707   -2.080508
H       1.667394    0.208174   -1.482218
H       1.710871   -2.478267    1.178109
H       2.862105   -1.197467    0.732897
