16

C       0.132919    1.329356   -0.133471
O      -0.159791   -0.028783    0.168319
C       0.573412   -0.527627    1.199944
C       0.547778   -0.257088    2.752124
C       2.014352   -0.659269    2.827204
C       0.928220   -1.713472    2.982757
C       0.946155   -1.967641    1.446715
C       2.051500   -0.907719    1.291140
H       1.188903    1.455750   -0.405685
H      -0.499118    1.609859   -0.978404
H      -0.092256    1.985776    0.717795
H      -0.018780    0.410764    3.387325
H       2.772756   -0.333648    3.527153
H       0.693693   -2.355416    3.821840
H       0.752989   -2.841403    0.839800
H       2.841142   -0.860186    0.553772
