14

O       0.077929    1.356676    0.205080
C       0.098131    0.015025   -0.006918
C       0.226419   -0.795470   -1.094653
O       0.541420   -0.751185   -2.437281
C       0.292976   -2.102222   -2.853131
O       0.413228   -2.967645   -1.713580
C       0.158082   -2.131158   -0.656393
C      -0.024628   -2.169721    0.690879
N      -0.019510   -0.818690    1.090934
H       0.077390    1.797466   -0.650169
H      -0.730898   -2.175850   -3.251957
H       1.034189   -2.389221   -3.601355
H      -0.099704   -2.965327    1.409627
H      -0.465243   -0.497352    1.934983
