23

C      -0.250658    1.687085    0.680830
C      -0.056432    0.166820    0.667751
C      -1.302608   -0.564559    0.173166
C      -1.673806   -0.464730   -1.344318
C      -1.686221   -2.007752   -1.446632
C      -0.298783   -2.628532   -1.778006
C      -0.101729   -2.944864   -0.264559
O       1.095576   -2.569206    0.379755
C      -1.359654   -2.126805    0.092063
H       0.651026    2.200430    1.029596
H      -0.482693    2.069794   -0.319556
H      -1.075497    1.977051    1.342263
H       0.804382   -0.096684    0.046174
H       0.191081   -0.184465    1.676619
H      -2.151676   -0.230232    0.781009
H      -2.642354    0.007148   -1.529677
H      -0.930656    0.026507   -1.981784
H      -2.552735   -2.484842   -1.904508
H      -0.302962   -3.499344   -2.438792
H       0.420269   -1.899806   -2.164531
H      -0.316197   -4.008485   -0.079711
H       1.793002   -3.166030    0.090100
H      -2.027415   -2.592569    0.818999
