23

C       0.174274    1.358995    0.132866
C       0.091204   -0.144228    0.065788
C       0.600788   -1.060990   -1.090526
C       0.011680   -2.028673   -0.027772
C       0.750513   -1.174040    1.039338
C      -1.198952   -1.050085    0.075443
C      -2.168249   -1.099067    1.250401
C      -3.188125    0.035166    1.215658
O      -4.076431   -0.144432    2.309055
H       1.214981    1.696427    0.069113
H      -0.377973    1.823229   -0.692078
H      -0.240271    1.741094    1.072328
H       0.068663   -0.990332   -2.044404
H       1.684189   -1.097924   -1.237289
H      -0.033273   -3.117351   -0.083963
H       1.843705   -1.217562    1.019571
H       0.383847   -1.209227    2.066484
H      -1.768692   -0.981725   -0.861562
H      -2.721396   -2.046800    1.223087
H      -1.656094   -1.070046    2.216732
H      -2.673854    1.007626    1.277760
H      -3.730126    0.017077    0.255485
H      -4.722112    0.567820    2.291998
