14

O       0.265883    0.251186    0.824116
C       0.455964    1.203418    0.133500
O       0.592424    2.450283    0.637514
C       0.880012    3.512358   -0.275912
C       2.305409    3.945060   -0.143353
C       3.232700    3.539760    0.764562
O       4.397200    4.171389    0.561184
N       4.262724    5.037245   -0.515191
C       3.026130    4.896277   -0.921923
H       0.530792    1.178164   -0.971306
H       0.657432    3.197756   -1.304949
H       0.190650    4.326706   -0.029108
H       3.203725    2.836117    1.580742
H       2.683154    5.479989   -1.765124
