16

C       0.199050    1.111932   -0.237174
O      -0.752098    0.298775    0.443237
C      -1.026831   -0.881703   -0.129898
N      -1.855552   -1.670760    0.397260
C      -2.129741   -2.901389   -0.294141
C      -3.375044   -2.806260   -1.165011
O      -3.847029   -1.779099   -1.586215
C      -4.035494   -4.132824   -1.566790
O      -3.633992   -5.210821   -1.215751
H       0.313160    2.014780    0.363164
H       1.170263    0.609542   -0.318977
H      -0.154796    1.387317   -1.237467
H      -0.467256   -1.083305   -1.057562
H      -1.320706   -3.232498   -0.974613
H      -2.269540   -3.721314    0.417822
H      -4.919622   -3.988786   -2.223225
