18

C       0.166534    1.559524    0.038483
N       1.259798    0.599857   -0.144896
C      -0.109641    0.090388    0.037141
C      -0.414664   -0.667151    1.284219
C       0.472151   -0.679019    2.364747
C       0.153918   -1.370633    3.529477
C      -1.051849   -2.062028    3.631491
C      -1.937193   -2.060897    2.556369
C      -1.618313   -1.369524    1.391006
H       0.181866    2.089430    0.986885
H      -0.173166    2.147678   -0.810433
H       1.528281    0.544936   -1.122996
H      -0.623903   -0.282435   -0.847049
H       1.417351   -0.156702    2.268498
H       0.853474   -1.375017    4.359384
H      -1.297063   -2.602311    4.539873
H      -2.875590   -2.602083    2.622374
H      -2.311330   -1.373129    0.554122
