18

C      -0.331468    1.458136    0.387325
C      -0.159677   -0.031531    0.539378
O       0.887324   -0.661555   -0.218440
C       0.973599   -0.689780    1.215248
C       2.137015    0.060425    1.826499
C       0.763504   -2.055197    1.813690
C      -0.145190   -2.274218    2.947819
O      -0.499362   -2.684712    1.626261
H       0.619909    1.991872    0.422569
H      -0.807443    1.680673   -0.573399
H      -0.981990    1.848327    1.177841
H      -1.088363   -0.601750    0.525926
H       2.335290    0.989435    1.291040
H       1.943215    0.292183    2.879191
H       3.046145   -0.549738    1.780732
H       1.615586   -2.728891    1.702896
H       0.049758   -3.080094    3.653381
H      -0.717385   -1.435414    3.342240
