16

N       0.042266   -1.046329    0.000683
C       0.012301    0.109488   -0.006336
C       0.001604    1.545785   -0.016324
O      -1.071771    2.132558    0.684918
C      -1.407531    3.341567   -0.018752
C      -0.128724    3.696522   -0.769705
C       1.077158    3.760062    0.229061
C       1.343785    2.283117   -0.060496
C       0.390455    2.311003   -1.248788
H      -2.250606    3.163112   -0.701738
H      -1.699375    4.087921    0.725740
H      -0.222890    4.500648   -1.497238
H       1.885008    4.385954   -0.155640
H       0.852796    4.042783    1.261855
H       2.277278    1.745427    0.053601
H       0.458642    1.905032   -2.248464
