11

N      -0.011576    1.364845    0.173210
C      -0.020552   -0.005508    0.059540
C      -1.214992   -0.757986    0.042253
N      -1.179955   -2.073608   -0.009841
C       0.044005   -2.592010   -0.034278
F       0.114268   -3.907866   -0.078117
N       1.195111   -1.954367   -0.026225
N       1.161952   -0.624473    0.013694
H       0.881884    1.788698   -0.032212
H      -0.804723    1.864182   -0.197123
H      -2.191025   -0.277287    0.069437
