21

O      -0.147645    1.421477   -0.049436
C      -0.069103    0.023849   -0.016685
C      -0.458118   -0.721186    1.240637
C      -1.367824   -0.718034    0.024064
C      -2.703325    0.032578    0.045816
C      -3.778462   -1.074146   -0.086899
C      -3.093144   -2.209646   -0.835642
C      -2.307679   -1.866221   -2.077221
C      -1.596927   -1.991785   -0.748070
H       0.580147    1.772828    0.474142
H       0.732963   -0.400275   -0.622648
H       0.081798   -1.628778    1.493935
H      -0.767305   -0.120110    2.090122
H      -2.832888    0.637432    0.945326
H      -2.752904    0.724787   -0.800746
H      -4.077674   -1.432686    0.905247
H      -4.683866   -0.710514   -0.584917
H      -3.515335   -3.205912   -0.760482
H      -2.151183   -2.662988   -2.796412
H      -2.415717   -0.883734   -2.525839
H      -0.909183   -2.817598   -0.600875
