19

C       0.057658    1.356488    0.188154
C      -0.043856   -0.172340   -0.008577
C      -1.442498   -0.596786    0.014565
C      -2.603518   -0.932727    0.033578
C      -3.984908   -1.334332    0.016528
O      -4.624973   -1.645804    0.995443
C       0.647339   -0.622331   -1.291475
C       2.135265   -0.861987   -1.291889
C       1.179772   -2.023514   -1.422031
H       1.109614    1.654021    0.206103
H      -0.436908    1.883961   -0.632604
H      -0.412819    1.665154    1.124919
H       0.465613   -0.656755    0.836622
H      -4.441889   -1.339569   -0.994615
H       0.225485   -0.179161   -2.189435
H       2.705579   -0.558194   -2.162384
H       2.667994   -0.749475   -0.352795
H       1.071972   -2.687404   -0.570472
H       1.094102   -2.519021   -2.382329
