16

N      -0.061709   -1.113977    0.221554
C      -0.065286    0.036717    0.081863
C      -0.040275    1.442394   -0.094057
C      -1.083831    2.267639   -0.217846
C      -2.453192    2.593715    0.310604
O      -1.910975    3.875410    0.761609
C      -0.718170    3.704995   -0.085136
C       0.701290    3.668366    0.502878
C       1.241885    2.288859   -0.001746
H      -3.238837    2.737568   -0.441068
H      -2.828299    1.973357    1.130049
H      -0.809756    4.341172   -0.974656
H       1.331291    4.509538    0.204438
H       0.629164    3.656990    1.594622
H       1.961723    1.841596    0.688517
H       1.743288    2.378227   -0.972670
