21

C      -0.104454    1.548102    0.027021
C      -0.014596    0.054692    0.002109
C      -0.141899   -0.744261   -1.061498
C       0.013642   -2.203952   -0.725696
C      -1.084705   -3.112746   -1.239613
O       1.332358   -2.725180   -1.092441
C       1.799596   -2.594110    0.264500
C       0.406181   -2.179109    0.781670
C       0.233918   -0.735501    1.276254
H       0.827273    1.991957    0.400420
H      -0.304228    1.959749   -0.965670
H      -0.900059    1.884578    0.704217
H      -0.328283   -0.403363   -2.075098
H      -1.095995   -3.111270   -2.334997
H      -0.922697   -4.141184   -0.904410
H      -2.065164   -2.774205   -0.888531
H       2.198491   -3.541021    0.647094
H       2.571753   -1.818532    0.364871
H      -0.075615   -2.925595    1.414472
H       1.117197   -0.369324    1.817496
H      -0.609714   -0.632143    1.972669
