19

C      -0.055588    1.505073    0.015899
C       0.056899   -0.000664   -0.002169
C      -0.817567   -0.824958    0.905048
C       0.686880   -0.788954    1.142908
C       1.447857   -1.892037    0.508253
C       1.330446   -1.878984   -0.832857
C       0.513110   -0.677511   -1.299184
C       1.866189   -2.821175   -1.740720
C       2.306465   -3.594023   -2.554936
H       0.884542    1.977269   -0.291647
H      -0.840221    1.852730   -0.666762
H      -0.303652    1.873515    1.016419
H      -1.441353   -0.282105    1.608661
H      -1.246187   -1.752990    0.539676
H       1.060748   -0.309487    2.041318
H       2.000245   -2.637268    1.068051
H      -0.327385   -0.981793   -1.933965
H       1.132764   -0.003637   -1.905753
H       2.702014   -4.283350   -3.258659
