20

C      -0.123535    1.525983   -0.034237
C       0.015471    0.002161   -0.004347
C       0.755857   -0.560179   -1.222896
O       2.060161    0.007587   -1.355769
C       0.828208   -2.094927   -1.207533
C       1.444146   -2.651695   -2.467501
C       1.063230   -3.959094   -3.012918
O       0.572766   -2.753436   -3.601094
H       0.856533    2.000831   -0.128067
H      -0.729055    1.847179   -0.888705
H      -0.603756    1.898531    0.875420
H       0.552116   -0.308687    0.905193
H      -0.974576   -0.466970    0.053711
H       0.231822   -0.249672   -2.135471
H       2.545371   -0.188918   -0.545825
H       1.419995   -2.416372   -0.337207
H      -0.177543   -2.513392   -1.087147
H       2.432035   -2.260448   -2.708367
H       1.770292   -4.523722   -3.619521
H       0.318980   -4.561188   -2.491957
