20

C      -0.229627    1.446331   -0.039749
C       0.034846   -0.063335   -0.065114
C       0.929529   -0.439354   -1.247938
N       0.710598   -0.487730    1.170100
C      -0.116863   -0.576896    2.371998
C      -1.107769   -1.760804    2.422342
C       0.768437   -0.624046    3.550797
N       1.451647   -0.692336    4.479970
H       0.712689    1.993281    0.060802
H      -0.723597    1.760559   -0.964529
H      -0.880363    1.740196    0.789709
H      -0.933469   -0.578193   -0.199143
H       1.909598    0.038832   -1.150972
H       1.081431   -1.523187   -1.302993
H       0.478808   -0.117436   -2.190633
H       1.180574   -1.375216    1.023945
H      -0.685847    0.356644    2.450174
H      -1.696136   -1.740478    3.344095
H      -1.795235   -1.712809    1.574120
H      -0.568031   -2.711732    2.382881
