18

O       0.010980    1.329569    0.269955
C      -0.003902   -0.012509    0.043359
C      -0.148407   -0.782939   -1.091130
C      -0.082776   -2.155919   -0.676299
C       0.093652   -2.161235    0.682630
C       0.319547   -3.064181    1.858521
C       0.075514   -2.107550    3.061647
C       0.389648   -0.686797    2.529746
N       0.131665   -0.845190    1.110405
H      -0.124095    1.775143   -0.571862
H      -0.302560   -0.412434   -2.093765
H      -0.162307   -3.019137   -1.319227
H      -0.350635   -3.928332    1.883454
H       1.345645   -3.456886    1.877904
H      -0.977178   -2.153838    3.355751
H       0.677707   -2.359541    3.937295
H      -0.246417    0.086131    2.969201
H       1.435635   -0.404011    2.707189
