18

C      -0.108836    1.581139   -0.104352
C       0.032285    0.070798    0.009583
C       1.127738   -0.615298   -0.844801
O       1.343447   -0.728222   -2.019624
N       1.786424   -1.071750    0.278533
C       0.794455   -0.579534    1.239421
C       1.340774    0.351656    2.321582
C      -0.022673   -1.690175    1.872691
O       0.176546   -2.863394    1.693876
H       0.848610    2.093645    0.020449
H      -0.488900    1.832148   -1.098985
H      -0.811759    1.977924    0.634884
H      -0.934609   -0.414277   -0.163612
H       2.376584   -1.887732    0.369069
H       1.914900    1.166586    1.876962
H       0.528478    0.781988    2.916364
H       2.002334   -0.195714    3.001184
H      -0.842695   -1.333325    2.537427
