16

N       0.154775    1.414774    0.141707
C      -0.040743    0.033252    0.051545
C      -1.159149   -0.775356    0.032679
C      -2.612490   -0.854245    0.008520
C      -2.978361   -2.152325   -0.021315
C      -1.772914   -3.086664   -0.024305
C      -0.642290   -2.095895    0.016081
N       0.673475   -2.152504    0.017337
N       1.024444   -0.826195    0.041325
H       0.787099    1.776949   -0.563411
H      -0.720564    1.917675    0.085749
H      -3.294998   -0.013164    0.016110
H      -3.997061   -2.517609   -0.041519
H      -1.777518   -3.766986    0.836904
H      -1.749146   -3.721096   -0.919466
H       1.994371   -0.581197    0.143338
