13

O       0.054418   -0.011692   -0.115990
C       0.012202    1.165778   -0.089184
C      -1.035296    2.365520    0.070616
O      -0.023951    2.926729    0.955441
C       0.968766    2.436646    0.021611
C       0.580787    3.125225   -1.282518
C      -0.775065    3.070260   -1.233171
C       1.463610    3.578740   -2.275546
C       2.255974    3.962891   -3.098489
H      -2.031274    2.280423    0.495365
H       1.994928    2.437076    0.377214
H      -1.498864    3.359584   -1.979454
H       2.944543    4.303100   -3.831992
