17

C      -0.068605    1.618916    0.128768
C      -0.060866    0.093813    0.032164
O       0.669448   -0.499426    1.103203
C      -1.445447   -0.483411    0.022820
O      -2.403738   -0.246076   -1.046826
C      -3.149648   -1.109382   -0.137035
C      -1.907082   -1.956477    0.273351
O      -2.095164   -1.762760    1.710274
C      -2.537554   -0.488020    1.151714
H       0.958033    1.993429    0.131683
H      -0.603903    2.056902   -0.719449
H      -0.555114    1.942810    1.054517
H       0.438420   -0.204287   -0.900260
H       0.043569   -0.838512    1.755320
H      -4.169699   -1.391073   -0.392919
H      -1.521414   -2.907827   -0.089369
H      -2.900004    0.290194    1.822178
