19

C       0.300462    1.087294   -0.302966
O      -0.368366    0.085376    0.446888
C       0.461935   -0.573362    1.334453
C       0.159385   -2.022600    1.600615
C      -0.928402   -2.757455    0.833126
O      -0.726613   -2.752908   -0.576526
C       0.606502   -2.978437   -0.911960
O       1.440113   -1.900368   -0.543400
C       1.414216   -1.644467    0.831045
H       1.098030    0.654324   -0.916983
H      -0.448233    1.550436   -0.949532
H       0.729019    1.859091    0.354196
H       0.811773    0.031578    2.174522
H       0.290740   -2.368065    2.621221
H      -0.965153   -3.798376    1.192618
H      -1.908337   -2.302065    0.997092
H       0.973236   -3.909642   -0.442015
H       0.661967   -3.052301   -1.999410
H       2.387952   -1.748341    1.305158
