16

C      -0.025983    1.494468    0.003289
C       0.061776   -0.016953   -0.114659
O       1.106553   -0.606366   -0.324496
N      -1.119367   -0.687206    0.030875
C      -1.178359   -2.115713   -0.057559
C      -2.596215   -2.597987    0.139180
O      -3.527827   -1.859034    0.340886
C      -2.790395   -4.128197    0.065675
O      -3.863502   -4.643479    0.204251
H       0.630339    1.822128    0.813729
H       0.349636    1.941196   -0.920979
H      -1.037777    1.861107    0.192191
H      -1.993918   -0.215256    0.205031
H      -0.807014   -2.483795   -1.027767
H      -0.528809   -2.601545    0.688590
H      -1.865225   -4.715978   -0.124599
