16

C      -0.008642    1.493880   -0.078270
C       0.056886    0.001150    0.035278
C      -0.826465   -0.834000    0.924579
C       0.682229   -0.858025    1.118501
N       1.406829   -1.908466    0.446641
C       1.188573   -1.721901   -0.800882
N       1.571040   -2.532692   -1.836168
O       0.449531   -0.640089   -1.182948
H       0.946578    1.903628   -0.421842
H      -0.788924    1.804899   -0.781501
H      -0.240691    1.932338    0.896116
H      -1.411187   -0.290118    1.659327
H      -1.302131   -1.719192    0.515021
H       1.117680   -0.466711    2.031095
H       2.310425   -3.173519   -1.591018
H       1.701238   -2.061552   -2.719014
