15

C      -0.766193    0.245585   -0.266160
O       0.072822    0.121796   -1.398877
C       1.364525   -0.346398   -1.093428
C       1.388946   -1.829062   -0.789165
N       1.826039   -2.298663    0.297065
O       0.913715   -2.561622   -1.869873
C       0.087558   -3.624495   -1.643847
O      -0.227114   -4.375541   -2.510491
H      -0.942136   -0.718747    0.232298
H      -0.342199    0.940119    0.473974
H      -1.720580    0.638912   -0.621874
H       1.976872   -0.165097   -1.983377
H       1.808619    0.178372   -0.238039
H       1.835815   -3.319562    0.316313
H      -0.255909   -3.674296   -0.596401
