15

C       0.303537   -0.117743   -1.236989
C       0.128512    0.540222   -0.246772
C      -0.044946    1.348963    0.964389
N       1.088511    2.203332    1.309132
C       1.423621    3.257364    0.478250
N       2.675138    3.661918    0.396191
O       2.648265    4.783298   -0.441339
C       1.390504    4.992621   -0.839370
C       0.549470    4.073722   -0.306270
H       0.455802   -0.697346   -2.113929
H      -0.936517    1.978328    0.867583
H      -0.233517    0.693738    1.821473
H       1.908329    1.687327    1.602240
H       1.238296    5.832249   -1.500574
H      -0.514206    3.989614   -0.447054
