17

C      -0.026911    1.580784    0.026184
C       0.049063    0.082297   -0.000563
C      -0.835060   -0.826810    0.864808
O      -1.686418   -1.806881    0.375489
C       0.628092   -0.988058    1.033215
C       1.187220   -1.816248   -0.116133
O       0.694479   -3.150693   -0.174790
C       0.618435   -0.748874   -1.097477
O       0.762320   -0.591673   -2.279436
H       0.939438    2.038375   -0.209270
H      -0.751285    1.934919   -0.714852
H      -0.347682    1.944724    1.006978
H      -1.321697   -0.250806    1.650005
H      -1.141742   -2.571853    0.135572
H       1.156304   -0.787365    1.957146
H       2.285085   -1.800747   -0.158926
H       0.893781   -3.497399   -1.052789
