22

C       0.402954    1.476617    0.078361
C      -0.225522    0.087124   -0.089316
C       0.368190   -0.672212   -1.257064
N       1.736628   -1.252549   -1.285846
C       1.991453   -1.874973    0.064494
C       0.786518   -2.835136   -0.065526
C       0.483156   -2.138786   -1.395496
C       0.222670   -2.884572   -2.674059
O       1.249435   -3.825815   -2.945157
H       1.476873    1.401925    0.275801
H       0.277362    2.077674   -0.828539
H      -0.058713    2.020762    0.907666
H      -0.133980   -0.477873    0.842714
H      -1.302837    0.188963   -0.272648
H       0.191241   -0.164908   -2.205898
H       2.959925   -2.378551    0.049342
H       1.984669   -1.163812    0.895973
H       1.092794   -3.870669   -0.218890
H       0.006956   -2.800985    0.700788
H      -0.708338   -3.459088   -2.599777
H       0.107116   -2.168539   -3.502402
H       2.073469   -3.323464   -2.935057
