21

C      -0.261047    1.577824   -0.013624
C       0.004622    0.068586   -0.012687
C       0.732751   -0.452278   -1.249428
C       2.194200   -0.101843   -1.494648
C       2.906123    0.308404   -0.203653
C       2.210792   -0.895207    0.507001
C       1.802157   -1.442927   -0.887741
C       0.900925   -0.459868    1.170374
O       1.188592    0.482581    2.190459
H       0.660390    2.157161   -0.101073
H      -0.906375    1.843665   -0.857695
H      -0.771263    1.900267    0.900546
H      -0.967842   -0.437673    0.041712
H       0.157637   -0.629848   -2.152958
H       2.541828    0.099775   -2.501756
H       3.983289    0.141079   -0.286476
H       2.733544    1.303609    0.213927
H       2.843208   -1.506169    1.150191
H       1.901329   -2.450163   -1.269498
H       0.414395   -1.346449    1.606838
H       0.367755    0.703431    2.640443
