20

C      -0.071820    1.462791    0.019047
N       0.032396    0.020723   -0.003632
C       0.075531   -0.784700   -1.130673
C       0.091619   -2.096960   -0.733576
C       0.155100   -3.298919   -1.625052
C       0.043346   -2.113556    0.703757
C       0.045481   -3.316808    1.596446
C       0.005507   -0.793755    1.093309
O      -0.058839   -0.197115    2.316669
H       0.416977    1.872164   -0.868072
H      -1.115504    1.800422    0.032012
H       0.426716    1.853001    0.908353
H       0.095308   -0.343693   -2.114617
H       1.054952   -3.900303   -1.442802
H      -0.703698   -3.965955   -1.476303
H       0.164024   -3.005965   -2.679132
H       0.994103   -3.868426    1.562028
H      -0.126621   -3.047624    2.646305
H      -0.745121   -4.027674    1.326698
H       0.073845   -0.875336    2.985728
