18

O      -0.633269    1.389741   -0.445951
C      -0.032938    0.145573   -0.057859
C      -1.175433   -0.867133    0.190008
C      -1.401627   -1.558709   -1.175950
N      -0.085674   -1.437586   -1.787209
C       0.551874   -1.971089   -2.869971
C       1.795166   -1.370389   -2.948920
C       1.902442   -0.438217   -1.877121
C       0.714673   -0.505018   -1.179020
H      -0.008902    1.838299   -1.025159
H       0.579038    0.297804    0.840534
H      -0.853398   -1.605957    0.929429
H      -2.069107   -0.364495    0.563367
H      -1.701394   -2.605907   -1.080188
H      -2.155771   -1.036749   -1.775807
H       0.092912   -2.732310   -3.480464
H       2.552583   -1.592250   -3.685716
H       2.753205    0.184742   -1.646085
