12

O      -0.069708    1.282245    0.216258
C       0.005098   -0.032915    0.050705
N       1.151959   -0.616254   -0.055569
C       1.148916   -1.981809   -0.225073
N       0.107529   -2.745895   -0.289158
N      -1.081060   -2.103338   -0.174165
C      -1.290343   -0.740867    0.000992
N      -2.406025   -0.126306    0.110026
H       0.843491    1.608358    0.229799
H       2.113912   -2.465207   -0.313658
H      -1.884326   -2.712001   -0.226122
H      -3.197988   -0.770053    0.053396
