25

C       0.060902    1.542518    0.138864
C      -0.054828    0.019623    0.240007
C      -1.433213   -0.509434   -0.184113
C      -1.524958   -2.020150   -0.108854
C      -2.021088   -2.714175    1.148061
O      -2.537946   -1.949825    2.202637
C      -2.843812   -2.786963   -0.112931
C      -4.161826   -2.037505   -0.175271
C      -2.857629   -4.114108   -0.850157
H       1.051684    1.891414    0.446540
H      -0.107638    1.882993   -0.888914
H      -0.680198    2.039696    0.774742
H       0.720644   -0.450496   -0.379053
H       0.153860   -0.298399    1.270876
H      -2.200002   -0.054936    0.451197
H      -1.644064   -0.175528   -1.209294
H      -0.707166   -2.527860   -0.618905
H      -1.511565   -3.624735    1.466592
H      -1.798494   -1.536597    2.660654
H      -4.175281   -1.170818    0.485615
H      -4.372580   -1.701702   -1.197285
H      -4.983780   -2.694748    0.131216
H      -3.639136   -4.775157   -0.456749
H      -3.053486   -3.967136   -1.919163
H      -1.900349   -4.637380   -0.758865
