21

C       0.104469    1.497525   -0.285629
C       0.185236    0.012533   -0.037577
O       1.480090   -0.550661    0.200477
C       0.515293   -0.615470    1.253223
C       0.807585    0.138012    2.533483
C       1.698245   -0.655804    3.465558
O       3.110408   -0.606279    3.249496
C       2.597601   -0.069783    4.474123
C       2.781535    1.406179    4.721027
H       0.723617    2.063973    0.412437
H       0.447089    1.726751   -1.300106
H      -0.931204    1.843855   -0.197304
H      -0.426096   -0.584219   -0.719116
H       0.120894   -1.622263    1.418945
H       1.266645    1.100781    2.305563
H      -0.145565    0.330964    3.046655
H       1.326118   -1.663351    3.672980
H       2.815583   -0.694823    5.343688
H       2.552870    2.001600    3.835198
H       2.138741    1.738990    5.543470
H       3.818990    1.611747    5.004799
