21

C      -0.031418    1.536419    0.036587
C      -0.005933    0.002025    0.015482
C       0.753205   -0.514331    1.251401
C      -1.449257   -0.533845    0.006526
N       0.687539   -0.470822   -1.204025
C       0.894935   -1.793263   -1.549435
C       1.567801   -1.772517   -2.741236
N       1.785952   -0.479611   -3.149012
C       1.248752    0.267855   -2.210145
H       0.978014    1.956933    0.049967
H      -0.569525    1.943285   -0.824147
H      -0.545578    1.870274    0.941596
H       0.262147   -0.169622    2.166424
H       0.781214   -1.606841    1.275699
H       1.783653   -0.147961    1.252013
H      -1.986099   -0.181227   -0.878638
H      -1.469794   -1.626787    0.003150
H      -1.984534   -0.189675    0.896615
H       0.553314   -2.605773   -0.931011
H       1.906168   -2.614506   -3.326392
H       1.238851    1.345104   -2.210405
