21

C      -0.283824    1.436838    0.140378
C       0.215880    0.010604   -0.118481
C       0.840984   -0.608664    1.113642
C       0.069202   -1.354396    2.160789
O      -1.023896   -2.092355    1.592390
C      -0.085928   -2.900976    0.859324
C      -0.232853   -4.384195    0.809449
C      -0.432008   -3.537271   -0.443872
C       1.098402   -2.094472    1.329393
H       0.532494    2.094651    0.459961
H      -0.725999    1.870650   -0.761888
H      -1.045994    1.447373    0.926394
H      -0.618043   -0.614075   -0.449743
H       0.950079    0.016960   -0.934074
H       1.639272   -0.013651    1.558455
H       0.012186   -1.116919    3.216661
H       0.661051   -4.994922    0.887546
H      -1.117977   -4.807509    1.271395
H      -1.449920   -3.412033   -0.797388
H       0.319611   -3.572841   -1.225330
H       2.063089   -2.502257    1.601308
