20

N      -0.009537    1.291427   -0.212136
C      -0.005936    0.051293    0.039847
C      -1.289251   -0.742399    0.126474
C      -1.231661   -1.882666    1.150492
C       0.042867   -2.700212    0.916305
C       1.239083   -1.783140    0.990672
C       1.948540   -1.538486    2.298400
C       2.629913   -2.292687    1.169295
O       1.168608   -0.654331    0.125343
H       0.952112    1.634150   -0.273364
H      -2.102879   -0.042455    0.321606
H      -1.465240   -1.171261   -0.869979
H      -1.221277   -1.473800    2.168060
H      -2.123708   -2.510293    1.064085
H       0.149455   -3.497579    1.657946
H       0.005534   -3.176420   -0.072485
H       2.287876   -0.527911    2.492818
H       1.627136   -2.090979    3.175051
H       2.774494   -3.363086    1.267980
H       3.412099   -1.773786    0.627380
