19

O      -0.089330    0.021421    0.016505
C       0.037312    1.217483    0.119075
C       1.331224    1.948053    0.045427
C       2.678739    1.249945   -0.254123
C       3.095244    2.646722   -0.734267
C       2.718127    3.729666    0.373679
C       1.765823    4.383655   -0.660436
C       1.629944    2.949516   -1.183440
C       1.722735    2.895889    1.208797
H      -0.853106    1.875140    0.265175
H       3.202006    0.777724    0.582298
H       2.600531    0.546447   -1.086685
H       3.957047    2.847484   -1.369486
H       3.475033    4.305197    0.905126
H       0.889093    4.923506   -0.288131
H       2.298495    5.003145   -1.388384
H       1.227086    2.672824   -2.156952
H       0.894938    3.498274    1.595389
H       2.172312    2.344036    2.038321
