18

C       0.023742    1.567007   -0.113346
C       0.012990    0.057881    0.004041
C       1.292448   -0.752094   -0.155708
C       0.611089   -0.644910    1.184774
C       1.220537    0.071602    2.388336
O       1.289826   -0.927096    3.413456
C       0.528285   -2.010320    3.065519
O       0.382097   -2.971894    3.765545
N      -0.020063   -1.768080    1.822337
H       0.942493    1.996632    0.299250
H      -0.038665    1.875872   -1.161977
H      -0.822048    2.016118    0.418261
H      -0.880478   -0.415479   -0.397489
H       1.240534   -1.698764   -0.684254
H       2.223953   -0.211289   -0.298438
H       2.226935    0.452462    2.202223
H       0.584166    0.893096    2.739279
H      -0.359518   -2.562214    1.304290
