14

O       0.370853    0.100110   -0.271412
C       0.490601    1.276830   -0.417384
O       0.938726    2.084212    0.578519
C       0.973010    3.460746    0.305239
C       2.111963    4.212130    0.898485
C       2.057288    4.018430   -0.614318
C       2.971308    3.130785   -1.266273
C       3.719284    2.375835   -1.829249
H       0.252957    1.831253   -1.342702
H      -0.007258    3.927256    0.264162
H       1.933429    5.205560    1.292049
H       2.845876    3.620522    1.431892
H       1.760658    4.886634   -1.195954
H       4.386281    1.709488   -2.318106
