18

C       0.032671    1.322628   -0.050367
O      -0.017216   -0.077166   -0.202130
C      -1.295334   -0.615351    0.081353
C      -1.207132   -2.103735   -0.019907
N      -2.198773   -2.934823   -0.232535
C      -1.633303   -4.194033   -0.208637
C      -0.283376   -4.113133    0.026747
N       0.745224   -5.058093    0.199738
N      -0.025937   -2.765334    0.159711
H       1.052725    1.639759   -0.279416
H      -0.660918    1.830221   -0.737914
H      -0.215559    1.630346    0.977512
H      -1.613657   -0.309630    1.094096
H      -2.058700   -0.246894   -0.620082
H      -2.224578   -5.083754   -0.366006
H       0.355097   -5.981187    0.345867
H       1.362852   -5.110398   -0.605891
H       0.865564   -2.331210    0.331898
