17

C       0.030612    1.407929   -0.141793
N      -0.031941   -0.043947   -0.098619
C      -1.252051   -0.667684    0.095107
O      -2.272515   -0.044765    0.335303
C      -1.219063   -2.137031    0.019727
C      -2.263960   -3.014247   -0.194922
C      -1.731804   -4.326273   -0.202001
C      -0.374762   -4.220762    0.021228
N      -0.066863   -2.893074    0.133247
H       1.057378    1.734301    0.042204
H      -0.307829    1.817588   -1.102453
H      -0.621480    1.803733    0.637251
H       0.637509   -0.537452   -0.669109
H      -3.288740   -2.715637   -0.348113
H      -2.275834   -5.245374   -0.355247
H       0.388075   -4.977395    0.115116
H       0.815846   -2.533284    0.453914
