14

O      -0.006806    1.418587   -0.170785
C       0.011672    0.042292    0.028134
C      -0.360233   -0.895725   -1.106357
C      -1.283035   -0.708040    0.072840
O      -1.231607   -1.696271    1.081275
C      -0.024108   -1.667410    1.730110
O       0.249498   -2.441344    2.596134
C       0.837985   -0.535025    1.159839
H       0.756305    1.656474   -0.708934
H      -0.668133   -0.420584   -2.031262
H       0.155155   -1.845192   -1.213281
H      -2.254464   -0.242162   -0.024816
H       1.816542   -0.931616    0.876056
H       0.992117    0.218307    1.938969
