17

O      -0.812345    1.022305   -0.374960
C       0.168290    1.011706    0.325771
C       1.334271    1.955278    0.205711
C       1.321423    3.019489   -0.908343
C       0.140751    3.901868   -0.482311
O       0.209944    3.854645    0.965905
C       1.370957    3.085597    1.271216
C       2.606212    3.862590    0.792541
O       2.529861    3.746086   -0.644710
H       0.279418    0.255919    1.136733
H       2.264727    1.377041    0.205565
H       1.321152    2.684389   -1.943574
H       0.281997    4.929750   -0.831400
H      -0.826308    3.514337   -0.810821
H       1.354712    2.811021    2.325711
H       2.542511    4.913379    1.094870
H       3.553407    3.438700    1.148821
