19

C      -0.016534    1.608919    0.159613
C       0.116999    0.090924    0.010998
C       0.913699   -0.370772   -1.191809
C       1.668579   -1.432955   -0.926306
C       1.506020   -1.858722    0.521775
C       2.769091   -2.373195    1.170146
O       3.188953   -2.041912    2.254753
C       0.840175   -0.617520    1.191538
O       1.798167    0.273481    1.719823
H       0.964314    2.077772    0.251977
H      -0.528865    2.030787   -0.711369
H      -0.597860    1.866813    1.049907
H      -0.895489   -0.336203   -0.064803
H       0.830069    0.108298   -2.161593
H       2.299138   -1.965020   -1.629823
H       0.814540   -2.721501    0.563709
H       3.312777   -3.139171    0.572511
H       0.126313   -0.926920    1.968947
H       2.352764   -0.243302    2.320128
