17

C      -0.139064    1.623836   -0.148160
C      -0.223547    0.122430   -0.005947
C      -1.611788   -0.483836   -0.057433
O      -2.484053    0.091344    0.912931
C      -2.361554   -0.369695    2.180008
N      -3.045666    0.155736    3.100086
C       0.916715   -0.737172   -0.355145
O       0.615491   -0.452610    1.012886
H      -0.492596    1.938429   -1.135991
H      -0.764550    2.112356    0.603623
H       0.892247    1.959876   -0.020490
H      -2.081866   -0.282741   -1.024632
H      -1.545645   -1.570187    0.079338
H      -1.646157   -1.194816    2.277361
H      -2.854116   -0.314656    3.982314
H       0.753132   -1.768699   -0.666346
H       1.827853   -0.280287   -0.738384
