12

N       0.021707    1.318948    0.148313
C      -0.043190   -0.049170    0.062251
N      -1.111368   -0.790000    0.084299
C      -0.611315   -2.089226    0.050582
N      -1.496368   -3.158043    0.131758
C       0.743008   -2.059235   -0.003277
O       1.120193   -0.710461    0.007883
H       0.829007    1.731285   -0.295534
H      -0.847794    1.770867   -0.091728
H      -2.414091   -2.902926   -0.207575
H      -1.165936   -4.002747   -0.313005
H       1.538190   -2.779612   -0.041020
