18

C      -0.092476    1.514925    0.054759
C      -0.011472    0.003951    0.022514
C      -1.149329   -0.685566   -0.715864
C      -1.262421   -2.162564   -0.475428
C      -0.664769   -2.799138    0.538266
C       0.156453   -2.085937    1.544031
O       0.424367   -2.580397    2.622896
C       0.633768   -0.718259    1.171345
N       1.340229   -0.531375   -0.123259
H       0.789021    1.933543    0.545097
H      -0.136859    1.920290   -0.962596
H      -0.986456    1.848132    0.592474
H      -2.102769   -0.213314   -0.436047
H      -1.046482   -0.493835   -1.793729
H      -1.898771   -2.716580   -1.161892
H      -0.810148   -3.859989    0.714539
H       1.058828   -0.159574    1.999986
H       1.327624   -1.408393   -0.642190
