20

C       0.087518    1.577693   -0.039636
C       0.026504    0.055816    0.023329
N       0.758899   -0.549781   -1.101654
C       2.164221   -0.760162   -0.701200
C       1.206541   -1.898964   -0.723521
C       1.202983   -1.945905    0.830185
C       2.179985   -0.783111    0.852873
C       0.727213   -0.566704    1.229483
C       0.315551   -0.261859    2.646660
H       1.123082    1.926818    0.029291
H      -0.331921    1.937893   -0.982763
H      -0.479757    2.027750    0.781144
H      -1.016997   -0.279821   -0.033033
H       2.966214   -0.472636   -1.368768
H       1.074868   -2.724563   -1.411228
H       1.159017   -2.823177    1.460248
H       3.024477   -0.602476    1.502785
H       0.411148    0.806574    2.868860
H      -0.727258   -0.548040    2.825160
H       0.935024   -0.805004    3.366881
