19

O       0.044484    0.027879    0.216965
C      -0.017482    1.214834    0.055392
C      -1.343911    2.021762   -0.150164
C      -0.852461    3.395779   -0.593263
C      -0.849517    4.781307    0.134296
C      -0.165371    4.102105    1.343735
C       0.545499    3.520180    0.074139
C       0.596409    4.977774   -0.463129
C       1.218629    2.176585    0.018709
H      -1.968997    1.506719   -0.883319
H      -1.890797    2.002551    0.797896
H      -0.835805    3.475231   -1.685731
H      -1.642322    5.530587    0.158646
H       0.448937    4.743320    1.981477
H      -0.767993    3.423525    1.950061
H       0.666099    5.096730   -1.547998
H       1.240938    5.687591    0.062422
H       1.902929    1.934536    0.835533
H       1.748489    2.003509   -0.926657
