18

O      -0.101388    1.392070   -0.035890
C      -0.016853   -0.021866    0.015500
C       0.418893   -0.604002    1.411612
N      -0.804323   -1.314136    1.874733
C      -1.175347   -2.028629    0.583763
C      -1.436353   -0.621454    0.004475
C      -1.859723   -0.305818    1.481206
C      -2.312103   -0.343824   -1.170508
O      -2.867026   -1.202583   -1.814926
H       0.789116    1.750340   -0.097242
H       0.591131   -0.404618   -0.815124
H       1.253557   -1.306594    1.345405
H       0.679470    0.202527    2.102189
H      -0.381420   -2.643573    0.151010
H      -2.084265   -2.617491    0.712128
H      -2.853684   -0.680819    1.731051
H      -1.711128    0.707640    1.856537
H      -2.440733    0.733746   -1.411704
