18

C       0.031674    1.560032   -0.075735
C      -0.048232    0.037062    0.132434
C       0.747280   -0.438095    1.256165
C       1.413494   -0.821636    2.186114
C       2.175950   -1.336671    3.303698
O       2.160294   -2.501294    3.642302
N       2.987709   -0.379161    3.914753
C       2.488143    0.792570    4.610465
C       3.165604   -0.327061    5.346754
H       1.062148    1.873197   -0.262560
H      -0.580582    1.857410   -0.931760
H      -0.329393    2.093021    0.807845
H      -1.092253   -0.265941    0.283896
H       0.283623   -0.481561   -0.776248
H       3.018303    1.721127    4.418709
H       1.411293    0.890873    4.722185
H       2.549943   -0.995726    5.942083
H       4.187336   -0.203949    5.693741
