15

C       0.071827   -3.749036   -0.005844
C       0.044705   -2.541426   -0.006567
C       0.014942   -1.182148   -0.006877
C      -0.003760    0.028636   -0.001914
C      -0.026131    1.464878    0.004168
C       0.500336    2.179283    1.262589
C       1.328171    2.197410    0.024724
C      -1.111345    2.086711   -0.712470
C      -2.012284    2.614962   -1.307255
H       0.094983   -4.810386   -0.005663
H      -0.029548    3.080049    1.547183
H       0.802816    1.537648    2.081108
H       2.208766    1.568437   -0.021209
H       1.376524    3.110836   -0.555332
H      -2.812137    3.071748   -1.835501
