16

C       0.056616    1.494263    0.034729
C      -0.058897    0.008728   -0.071122
C       0.522377   -0.897997   -1.084602
N       0.991257   -0.977472    0.352549
C      -0.049048   -1.725244    1.133198
C      -1.179080   -0.953904    0.426320
O      -1.616581   -1.715770   -0.705024
C      -0.566779   -1.802418   -1.585168
O      -0.605162   -2.457598   -2.584311
H       1.058171    1.815046   -0.265105
H      -0.674293    1.989774   -0.613041
H      -0.113831    1.833286    1.061943
H       1.301129   -0.598810   -1.773056
H      -0.051923   -2.812693    1.012616
H       0.067207   -1.458809    2.186086
H      -2.049895   -0.592843    0.968941
