19

O       0.152563    1.428573   -0.103654
C       0.027466    0.010946   -0.020931
C       0.781887   -0.521015    1.171164
C       0.191678   -0.994643    2.269514
C      -1.300853   -1.084930    2.444784
C      -2.059149   -0.253132    1.403704
C      -1.452646   -0.464509   -0.000080
C      -2.244574    0.170821   -1.046081
C      -2.919308    0.684667   -1.897689
H       0.014919    1.783203    0.781044
H       0.485134   -0.356096   -0.946268
H       1.865436   -0.459532    1.111928
H       0.804119   -1.350884    3.095120
H      -1.608494   -2.139701    2.379574
H      -1.574901   -0.766254    3.458098
H      -3.121008   -0.512484    1.396677
H      -2.000262    0.813277    1.654515
H      -1.431409   -1.547320   -0.193781
H      -3.503018    1.144211   -2.656093
