17

O      -0.514509    1.620119   -0.164041
C      -0.133338    0.282177   -0.397917
C      -1.242554   -0.683247    0.032749
C      -0.942652   -2.213594    0.150077
C      -1.450513   -2.179099    1.604248
C      -2.391833   -3.071712    2.302964
O      -1.021225   -2.977982    2.682721
C      -1.487591   -0.660950    1.552874
O      -1.534713    0.225320    2.362016
H      -0.741076    1.690480    0.772692
H       0.062867    0.187998   -1.471068
H       0.799611    0.022128    0.129635
H      -2.157599   -0.461843   -0.525387
H      -1.480795   -2.869520   -0.534997
H       0.126796   -2.436900    0.100140
H      -3.104019   -2.652461    3.011453
H      -2.685031   -4.001399    1.817418
