18

O       0.044564    1.377723    0.014868
C       0.006557   -0.017550   -0.014363
C      -0.420170   -0.760976    1.246137
C      -1.354406   -0.634504    0.069333
C       1.038035   -0.662674   -0.863743
N       1.004893   -1.829732   -1.362388
C       2.294957   -2.035853   -2.035198
C       3.037237   -0.681544   -1.885728
O       2.151768    0.103930   -1.055532
H       0.961721    1.637953    0.158414
H       0.030043   -1.726514    1.444599
H      -0.611458   -0.135694    2.110799
H      -2.175703    0.067643    0.152473
H      -1.534050   -1.510520   -0.541374
H       2.836439   -2.862680   -1.561623
H       2.136073   -2.310856   -3.082708
H       4.002694   -0.757697   -1.379311
H       3.173566   -0.153387   -2.833981
