18

C       0.055650    1.586071    0.036964
C       0.039426    0.054848    0.033524
C       0.751111   -0.518840    1.260842
O       2.100236   -0.089425    1.223068
C      -1.400839   -0.513240   -0.026562
C      -2.118024   -0.151012   -1.236295
C      -2.703323    0.149404   -2.250245
C      -3.369048    0.487499   -3.392856
N      -3.936168    0.775412   -4.365259
H       1.082841    1.949192    0.101589
H      -0.402117    1.989672   -0.870193
H      -0.498193    1.979305    0.898428
H       0.580843   -0.303958   -0.850160
H       0.243185   -0.168565    2.175749
H       0.684150   -1.619134    1.247782
H       2.539670   -0.392235    2.022726
H      -1.373000   -1.608625    0.046757
H      -1.972232   -0.159399    0.842977
