21

C      -0.436195    1.474082    0.093746
C       0.036785    0.022161   -0.023436
C       0.879589   -0.221824   -1.315142
C       2.290921   -0.701254   -1.005095
C       2.520946   -1.698829    0.124836
C       1.342796   -1.854453    1.072373
C       0.877163   -0.388005    1.199214
O       2.091563    0.380446    1.208276
C       2.938686   -0.258814    0.279954
H       0.422616    2.145794    0.184010
H      -1.016496    1.771992   -0.785534
H      -1.069258    1.615605    0.977115
H      -0.846029   -0.629151   -0.042101
H       0.382155   -0.950313   -1.965464
H       0.940180    0.707919   -1.892748
H       2.949563   -0.803084   -1.862873
H       3.237783   -2.502339    0.007369
H       0.543964   -2.500064    0.694538
H       1.678724   -2.250246    2.036402
H       0.350016   -0.170285    2.131890
H       3.961360    0.092549    0.338134
