15

C       0.005857    1.426162   -0.008131
N      -0.012264   -0.018143    0.042044
N       0.040357   -0.756449   -1.111689
C       0.075109   -2.048813   -0.736639
C       0.038830   -2.130035    0.658198
C      -0.008485   -0.845699    1.096392
O       0.014300   -0.735153    2.451576
C      -0.228010   -2.122352    2.839985
O       0.113759   -2.983237    1.749479
H       1.027667    1.815603    0.052619
H      -0.438327    1.733286   -0.955039
H      -0.579604    1.828730    0.821793
H       0.113459   -2.820251   -1.488934
H       0.396542   -2.356012    3.703473
H      -1.298962   -2.222055    3.071504
