13

O       0.061861    0.065312   -0.139693
C      -0.009615    1.241534    0.048425
C      -1.133611    2.214842    0.117546
C      -0.705426    3.435072    0.930713
O       0.259289    3.306847    1.954968
C       1.408045    2.774611    1.406795
O       2.412562    2.623229    2.028185
C       1.071303    2.384513   -0.023936
C      -0.119387    3.295668   -0.411559
H      -2.169912    2.038592   -0.140476
H      -1.473000    4.158174    1.170386
H       1.924099    2.219387   -0.674002
H      -0.209292    3.941251   -1.272292
