22

C       0.092073    1.672740    0.145973
C       0.093724    0.146561    0.000917
C      -1.302269   -0.500361   -0.071015
C      -2.050663   -0.130855   -1.359233
O      -3.359448   -0.685853   -1.423823
C      -1.224496   -2.025484    0.072795
C      -0.934365   -2.479403    1.501083
N      -0.440583   -3.750150    1.607044
O      -1.127532   -1.779568    2.477945
H       1.112036    2.051086    0.266282
H      -0.339593    2.175837   -0.724836
H      -0.480637    1.980162    1.027706
H       0.670668   -0.140395   -0.890104
H       0.619198   -0.282923    0.860525
H      -1.884956   -0.130815    0.784135
H      -2.086843    0.960862   -1.478179
H      -1.520412   -0.533171   -2.231278
H      -3.872371   -0.303203   -0.704241
H      -2.189339   -2.455596   -0.223571
H      -0.474346   -2.442504   -0.612024
H      -0.401106   -4.369142    0.816098
H      -0.356505   -4.146216    2.529260
