16

C       0.013811    1.513352   -0.047232
C      -0.011970    0.006232    0.031599
O       0.673471   -0.614006   -1.077175
C       0.434946   -1.963149   -0.653816
C       1.022891   -1.905551    0.780774
C       0.739491   -0.681179    1.209108
C      -1.110581   -1.936691   -0.521435
C      -1.387749   -0.712695   -0.087979
H       1.043754    1.880356   -0.039860
H      -0.471055    1.857805   -0.964722
H      -0.514239    1.948712    0.807035
H       0.867897   -2.683664   -1.345996
H       1.492129   -2.729128    1.299463
H       0.917458   -0.227280    2.173931
H      -1.768748   -2.776658   -0.691066
H      -2.336542   -0.275571    0.190039
