18

C      -0.061344    1.508900    0.023750
C      -0.060610    0.008022    0.090370
C      -1.266373   -0.782922   -0.402051
N      -1.070945   -2.112023    0.169936
C      -0.125610   -2.115723    1.286766
C       0.620913   -0.812477    1.102405
O       1.172009   -0.661571   -0.212103
C      -1.487899   -3.266796   -0.410635
O      -1.254225   -4.379116    0.014793
H       0.858175    1.908059    0.457654
H      -0.122297    1.851011   -1.015108
H      -0.916517    1.925051    0.566107
H      -2.189352   -0.306800   -0.039887
H      -1.314238   -0.832390   -1.494821
H      -0.635317   -2.130813    2.260127
H       0.507925   -3.003789    1.222092
H       1.202428   -0.391706    1.918114
H      -2.080893   -3.080484   -1.328326
