21

C      -0.123411    1.757381    0.063804
C      -0.168380    0.227602    0.022928
C      -1.597978   -0.323523    0.017428
C      -1.640178   -1.850431   -0.023398
C      -3.038143   -2.433052   -0.029852
N      -4.076110   -1.708104   -0.003096
N      -3.023625   -3.852917   -0.068707
C      -4.107276   -4.693369   -0.084179
O      -5.269535   -4.355185   -0.067024
H       0.906497    2.127620    0.067073
H      -0.631598    2.190191   -0.804798
H      -0.620123    2.142669    0.960954
H       0.366215   -0.130641   -0.867537
H       0.377662   -0.177830    0.885782
H      -2.140622    0.025168    0.902661
H      -2.151994    0.072102   -0.840619
H      -1.107300   -2.219484   -0.912759
H      -1.095814   -2.266590    0.837766
H      -4.920854   -2.280081   -0.013020
H      -2.117673   -4.297679   -0.086968
H      -3.793883   -5.755254   -0.115243
