14

N      -0.009822   -1.252771   -0.061691
C      -0.010673   -0.097916   -0.018024
C      -0.050051    1.354126    0.035131
C       0.002358    2.082428    1.406297
C       1.476943    1.632864    1.449590
N       1.325714    2.080625   -0.025527
C       0.555966    3.280881    0.591372
C      -0.311186    4.033739   -0.302703
N      -1.006998    4.649901   -0.989738
H      -0.757475    1.733369   -0.705413
H      -0.756095    2.093635    2.192405
H       2.184275    2.243504    2.013389
H       1.687020    0.569033    1.555289
H       1.224826    3.960430    1.122723
