18

O      -0.190403    1.481362    0.012045
C       0.024000    0.079082    0.002193
C      -1.349303   -0.577432    0.011805
C      -1.292551   -2.092212    0.002882
O      -0.246717   -2.703194   -0.010182
C      -2.633629   -2.818941    0.011593
C      -2.456049   -4.345098    0.001870
C      -3.736658   -5.046622    0.010160
N      -4.757901   -5.587330    0.016781
H       0.667441    1.915679    0.006432
H       0.580830   -0.244386   -0.888656
H       0.597889   -0.254206    0.878472
H      -1.916643   -0.245618    0.891434
H      -1.933510   -0.235935   -0.852947
H      -3.205117   -2.499460    0.891415
H      -3.221402   -2.490247   -0.853991
H      -1.882544   -4.649701   -0.878820
H      -1.866218   -4.658948    0.868419
