18

C       0.025114    1.646254    0.020942
C       0.037631    0.126643   -0.005585
C       0.731150   -0.644463   -1.162870
C       2.232413   -0.315498   -1.044528
C       2.592005   -1.562037   -0.328762
N       2.428760   -0.295426    0.449328
C       1.013047   -0.664399    0.889353
C       1.081253   -1.831797   -0.156688
O       0.521360   -3.085585   -0.117005
H       1.038309    2.046073   -0.077962
H      -0.582988    2.051583   -0.795216
H      -0.390745    2.020625    0.962645
H      -0.974083   -0.277272    0.137110
H       0.291899   -0.787936   -2.149032
H       2.843560    0.349904   -1.641815
H       3.484243   -2.174958   -0.298581
H       0.915470   -0.757873    1.970646
H      -0.438388   -3.004027   -0.080424
