20

C      -0.013115    1.426252   -0.067392
N      -0.004654   -0.028340   -0.035722
C      -0.008668   -0.680322    1.166217
O      -0.018559   -0.145377    2.255413
C       0.004551   -0.727640   -1.276720
C       1.086143   -0.639215   -2.404071
C       0.017703   -1.650158   -2.905844
C       0.021394   -2.268482   -1.476945
C      -1.074128   -0.662274   -2.408690
H       0.876445    1.809633   -0.579477
H      -0.901800    1.799286   -0.588611
H      -0.020552    1.777965    0.964015
H      -0.001839   -1.777250    1.037339
H       1.156722    0.306876   -2.946868
H       2.072887   -1.042925   -2.162384
H       0.025467   -2.192202   -3.848574
H       0.931146   -2.792238   -1.171832
H      -0.878157   -2.811798   -1.175852
H      -2.053033   -1.086932   -2.171092
H      -1.162605    0.282161   -2.951750
