20

C      -0.177513    1.652083   -0.105541
C      -0.053572    0.132338    0.055984
N      -1.329957   -0.575541    0.074585
C      -2.062416   -0.703641   -1.174877
C      -2.041428   -0.775957    1.232495
N      -3.278805   -1.096758    1.220807
C      -3.993624   -1.405459    2.438767
C      -1.277640   -0.631569    2.469684
N      -0.741224   -0.526322    3.489189
H       0.816459    2.109245   -0.136191
H      -0.698338    1.914375   -1.031386
H      -0.727722    2.089877    0.732883
H       0.539172   -0.284852   -0.765821
H       0.484228   -0.099972    0.978591
H      -2.649344   -1.623831   -1.161652
H      -2.761080    0.127277   -1.339142
H      -1.344671   -0.735392   -1.997963
H      -4.347609   -2.442984    2.399192
H      -3.413219   -1.275806    3.362407
H      -4.886586   -0.772375    2.498980
