14

N       0.039437    1.363847   -0.239374
C      -0.030578   -0.005506   -0.016359
N      -1.147236   -0.629711   -0.170167
N      -1.072274   -2.006945   -0.040712
C      -0.004210   -2.764574    0.331782
O      -0.042541   -3.973429    0.472657
C       1.270722   -1.982998    0.539695
N       2.381570   -2.500465    0.866353
N       1.154247   -0.617146    0.313095
H       0.513045    1.878969    0.493008
H      -0.881109    1.745372   -0.414756
H      -1.949439   -2.483337   -0.190331
H       2.238743   -3.507694    0.964772
H       2.012871   -0.084043    0.325911
