19

C      -0.009827    1.543742   -0.038311
C       0.012502    0.009765    0.024552
C       0.836393   -0.468198    1.229756
C      -1.428555   -0.542130    0.029209
O      -2.185542   -0.060201   -1.067972
C      -1.471493   -2.089091    0.073736
C      -2.834303   -2.613004    0.026637
N      -3.907165   -3.040601    0.002797
H       1.003716    1.940359   -0.151157
H      -0.619811    1.897132   -0.871629
H      -0.430426    1.961527    0.884026
H       0.495616   -0.366036   -0.892149
H       1.815593    0.019830    1.236075
H       0.336858   -0.212043    2.171652
H       1.012903   -1.547579    1.223204
H      -1.951545   -0.160174    0.914512
H      -1.755591   -0.344057   -1.883220
H      -0.907112   -2.498396   -0.774761
H      -0.990585   -2.463217    0.982387
