17

C      -0.008853    1.430720    0.075833
C       1.441779    1.948997    0.019992
O       2.217804    1.451490    1.119382
C       1.964666    0.130346    1.297692
C       0.929787   -0.615792    0.789605
N      -0.109935   -0.028886    0.017047
C       1.101843   -1.944336    1.285798
C       2.231191   -1.946615    2.068775
N       2.754478   -0.664910    2.078052
H      -0.457790    1.773222    1.016541
H      -0.581849    1.870707   -0.745774
H       1.915204    1.638974   -0.922591
H       1.478700    3.038614    0.094795
H      -0.095091   -0.354739   -0.944122
H       0.464710   -2.792358    1.087387
H       2.709267   -2.738723    2.619989
H       3.564973   -0.352768    2.582332
