15

C       0.115773    1.369156    0.087643
N      -0.024631   -0.072914    0.142974
C      -1.173127   -0.577450    0.053061
O      -1.148738   -2.019541    0.124734
C      -2.273753   -2.711901    0.046278
O      -2.089258   -4.024809    0.127694
C      -3.491590   -2.125884   -0.102832
C      -3.465058   -0.706832   -0.168424
N      -2.395383    0.030107   -0.097588
H       0.781541    1.630669   -0.743311
H      -0.832658    1.903391   -0.032244
H       0.607932    1.714641    1.004448
H      -1.140283   -4.187543    0.229778
H      -4.395647   -2.710489   -0.164526
H      -4.408711   -0.174599   -0.287762
