17

C      -0.176912    1.512653    0.023292
C      -0.067148   -0.004807    0.015960
O      -1.292681   -0.641289   -0.259680
C       1.145215   -0.560650   -0.776853
O       1.512968   -0.607273   -1.906272
O       1.763405   -1.065964    0.340146
C       0.656779   -0.660490    1.189862
C       0.861531   -0.243224    2.600163
C       0.131427   -1.540056    2.259632
H       0.772407    1.979612    0.299952
H      -0.453139    1.875341   -0.972673
H      -0.947056    1.826457    0.734338
H      -1.610604   -0.321049   -1.111679
H       1.865789   -0.326816    3.000702
H       0.287966    0.596244    2.979462
H      -0.944722   -1.585329    2.384722
H       0.657348   -2.470619    2.441366
