14

N      -0.173751    1.319600    0.011549
C      -0.012075    0.071576    0.003376
O      -1.134907   -0.712515    0.008136
C      -1.027250   -2.068734    0.000607
N       0.151003   -2.662892   -0.009872
C       0.136484   -4.002267   -0.016398
C      -1.047679   -4.722988   -0.012298
N      -2.240670   -4.110478   -0.001585
C      -2.234485   -2.786844    0.004859
H       0.733717    1.782439    0.006348
H       0.914257   -0.501273   -0.007580
H       1.101602   -4.501127   -0.025076
H      -1.046285   -5.808326   -0.017637
H      -3.183312   -2.259116    0.013578
