15

O       0.146410    0.586395    1.124403
C       0.106550    1.398410    0.228744
N       1.168672    1.736927   -0.557643
C       2.452506    1.148239   -0.394301
C       3.640622    1.802167   -1.028029
O       3.468842    3.175105   -1.357837
C       3.293111    3.812446   -0.160401
N       3.349660    3.129022    0.907297
C       3.535643    1.763077    0.496548
H      -0.809928    1.950391   -0.059850
H       1.036255    2.400222   -1.305581
H       2.460001    0.062583   -0.395440
H       4.336040    1.291838   -1.681719
H       3.122879    4.878785   -0.237258
H       4.103465    1.117504    1.153583
