16

O       0.154553    1.201363   -0.367917
C       0.105382   -0.111452    0.124625
C      -0.016638   -0.310649    1.653245
O      -1.272394   -1.011949    1.480576
C      -1.305646   -0.736602    0.085124
C      -2.510759    0.001843   -0.527405
O      -2.695111   -1.101237   -1.476830
C      -1.675231   -1.830862   -0.904363
N      -1.224649   -2.971811   -1.157550
H       1.064711    1.420987   -0.585267
H       0.853619   -0.759995   -0.341989
H       0.736118   -0.938207    2.140692
H      -0.142674    0.629315    2.202917
H      -3.365543    0.092166    0.146312
H      -2.296030    0.939155   -1.041782
H      -1.736937   -3.420397   -1.919228
