18

C      -0.255350    1.495630   -0.012460
C       0.096239   -0.003053    0.021404
C       0.826437   -0.454103   -1.205619
C       2.098668   -0.864958   -1.336315
C       2.402038   -1.308436   -2.734038
N       1.587359   -2.496386   -3.113726
C       1.160140   -1.118848   -3.508799
C       0.145152   -0.536908   -2.540385
O      -0.983280   -0.187146   -2.798633
H       0.648969    2.109615   -0.072419
H      -0.882442    1.720550   -0.878210
H      -0.800883    1.781793    0.891709
H       0.695109   -0.230234    0.909985
H      -0.833710   -0.579036    0.103692
H       2.818845   -0.940887   -0.528989
H       3.388324   -1.181756   -3.165201
H       2.003370   -2.930847   -3.938990
H       1.125516   -0.848271   -4.556846
