12

N       0.163171    1.421988   -0.116404
C      -0.001785    0.028270   -0.045181
C      -1.120256   -0.786050   -0.051054
O      -2.402534   -0.308968   -0.066828
C      -0.623147   -2.104828   -0.013549
N       0.710507   -2.121698    0.018092
N       1.059673   -0.824218   -0.009266
H       0.307329    1.840091    0.798728
H      -0.669032    1.845201   -0.512623
H      -2.996847   -1.028806   -0.296601
H      -1.176566   -3.033417   -0.000350
H       2.031641   -0.565954   -0.030600
