20

N      -0.059338    1.023940   -0.690856
C      -0.052740   -0.072658   -0.064187
C      -1.275345   -0.889394    0.302301
C      -0.700043   -2.267361    0.638199
C      -0.559747   -3.251151   -0.539804
C       0.658932   -4.104543   -0.154389
C       1.644867   -3.089739    0.468321
C       0.764873   -1.954637    1.035471
O       1.073583   -0.699104    0.390086
H       0.892658    1.379787   -0.795115
H      -1.758600   -0.429896    1.171647
H      -2.001101   -0.888359   -0.512614
H      -1.229771   -2.751215    1.463369
H      -1.466878   -3.837528   -0.709503
H      -0.352368   -2.696213   -1.463701
H       0.365125   -4.851348    0.592962
H       1.089575   -4.648440   -0.999273
H       2.285110   -3.538848    1.231576
H       2.299656   -2.658117   -0.293965
H       0.899327   -1.809463    2.112144
