18

O      -0.545217    0.772023    1.608592
C      -0.132578    0.064311    0.484322
C      -0.634590   -1.314188    0.147215
C      -1.015729   -0.129901   -0.729540
C      -2.420126    0.421705   -0.749317
N      -3.399332   -0.230246   -1.678385
C      -4.468146   -0.269151   -0.646024
C      -3.403049    0.095713    0.386154
O      -3.328661    0.061621    1.583856
H      -1.441705    0.496926    1.856705
H       0.914409    0.274156    0.288631
H       0.055653   -2.050839   -0.249476
H      -1.403371   -1.731828    0.789326
H      -0.529756   -0.064825   -1.700110
H      -2.384098    1.517646   -0.871501
H      -3.631794    0.337895   -2.484642
H      -5.244145    0.505935   -0.722085
H      -4.954852   -1.241968   -0.518174
