23

C      -0.032442    1.611544    0.067875
C       0.076965    0.092862    0.028346
C       1.095635   -0.617662   -0.942801
C       2.126031    0.235660   -1.678644
C       1.540845   -1.560128    0.229634
C       2.797150   -1.231771    1.053713
O       3.968708   -0.921231    0.332231
C       2.021363   -0.113370    1.810385
C       0.692536   -0.677631    1.222139
H       0.931336    2.099574    0.239679
H      -0.429546    1.999868   -0.876550
H      -0.711701    1.930655    0.866729
H      -0.922866   -0.313960   -0.162056
H       0.557165   -1.204180   -1.694065
H       2.719514    0.860147   -1.008983
H       2.830883   -0.398012   -2.224944
H       1.624921    0.887550   -2.403653
H       1.346175   -2.619024    0.051032
H       2.983424   -2.072064    1.740237
H       4.685483   -0.795146    0.961984
H       2.109236   -0.125710    2.899739
H       2.272194    0.889343    1.456297
H       0.007387   -1.108192    1.953902
