20

C       0.342970    1.388147    0.347925
C       0.170018   -0.040280    0.143772
C       0.015939   -1.221978   -0.027954
C      -0.169112   -2.630741   -0.235264
N      -1.297157   -3.086406   -0.609744
O       0.989773   -3.294992    0.034364
C       1.045242   -4.724285   -0.125333
C       1.245846   -5.088038   -1.596291
C       2.189423   -5.197517    0.762240
H       1.342587    1.617923    0.731568
H       0.208117    1.936895   -0.590611
H      -0.390330    1.773070    1.064945
H      -1.292351   -4.098514   -0.722723
H       0.105716   -5.156451    0.245264
H       0.434879   -4.702536   -2.219214
H       2.187398   -4.666618   -1.961350
H       1.283534   -6.175224   -1.715833
H       2.014187   -4.910363    1.802006
H       2.282637   -6.286225    0.711024
H       3.134288   -4.752559    0.436194
