12

O      -0.427381    0.111196    0.007408
C      -0.110289    1.266674    0.009671
N       1.195242    1.757458   -0.000462
C       2.373372    1.033245   -0.014846
O       2.501029   -0.162367   -0.021478
C       3.591852    1.992738   -0.021958
O       3.434711    3.196288   -0.014499
C       4.877800    1.351535   -0.037594
C       5.964761    0.835558   -0.050651
H      -0.834081    2.104958    0.020219
H       1.330410    2.762383    0.002771
H       6.922820    0.373579   -0.062023
