19

C      -0.067989    1.427336   -0.009263
C      -0.004465   -0.025111   -0.019091
C       0.062034   -1.231982   -0.028968
C       0.082992   -2.636709   -0.033440
C       1.092375   -3.519920   -0.160287
C       0.397201   -4.879189   -0.075535
C      -0.847579   -4.616499   -0.995025
C      -1.151268   -3.560231    0.119011
C      -0.584017   -4.619306    1.121803
H       0.529227    1.847764    0.808340
H       0.313859    1.850202   -0.945893
H      -1.097445    1.780527    0.117613
H       2.148393   -3.334675   -0.291524
H       1.003962   -5.780522   -0.152277
H      -0.659429   -4.246433   -2.005444
H      -1.559626   -5.447877   -1.008033
H      -2.124818   -3.088036    0.240852
H      -1.271405   -5.450947    1.306846
H      -0.153722   -4.251820    2.056199
