17

C      -0.853340   -0.422537   -1.141259
C      -1.067459    0.942366   -0.588259
N      -0.087236    0.034757    0.013057
C      -0.399946   -0.518467    1.283800
C      -0.342014   -1.984510    1.621598
C      -1.589177   -1.204964    1.953950
O      -1.408478   -0.472156    3.166861
C      -0.316076    0.285347    2.576891
H      -1.646774   -1.148883   -0.975139
H      -0.284330   -0.569911   -2.054190
H      -0.652785    1.811618   -1.089203
H      -1.995579    1.115002   -0.047731
H      -0.434128   -2.640004    0.759876
H       0.293270   -2.360913    2.420461
H      -2.599154   -1.471413    1.664087
H       0.608958    0.216065    3.160322
H      -0.601919    1.335964    2.450799
