16

O       0.057611    0.035417    0.024557
C       0.034988    1.231677   -0.020590
N      -1.015232    2.152515   -0.059140
C      -0.175846    3.308552    0.164925
C      -0.227749    4.755891   -0.303810
C       0.741728    5.100848    0.883633
C       0.510787    3.686124    1.505995
O       1.579392    2.737064    1.313862
C       1.070673    2.401200    0.003386
H      -1.977107    1.997200    0.214620
H       0.108848    4.968557   -1.321462
H      -1.214768    5.206453   -0.162222
H       1.780187    5.252248    0.584745
H       0.423553    5.934597    1.511341
H       0.067685    3.629934    2.501942
H       1.811139    2.462474   -0.795897
