25

C       0.074808    1.270087    0.386239
C       0.026708   -0.181722   -0.102859
C       0.735363   -0.468969   -1.447112
C       0.074510    0.308695   -2.597781
C       2.264065   -0.146329   -1.364894
C       2.980755   -1.354145   -1.991288
C       2.109225   -2.539490   -1.556326
O       2.266499   -2.827193   -0.165426
C       0.687338   -2.005754   -1.748264
H       1.104018    1.632158    0.481163
H      -0.454960    1.950279   -0.288083
H      -0.394816    1.358244    1.371198
H       0.479456   -0.834529    0.652701
H      -1.023018   -0.494033   -0.188659
H       0.106934    1.390274   -2.433348
H       0.581473    0.107186   -3.548453
H      -0.976161    0.019073   -2.716859
H       2.518161    0.795502   -1.859403
H       2.568504   -0.055297   -0.318247
H       2.978389   -1.289625   -3.086591
H       4.026158   -1.454477   -1.677126
H       2.297470   -3.444896   -2.151416
H       3.196172   -3.020168   -0.006722
H      -0.013731   -2.538486   -1.100387
H       0.375486   -2.182743   -2.783104
