22

C      -0.209079    1.536130   -0.009574
C       0.005717    0.040743   -0.067872
C       0.644881   -0.673861   -1.205716
C       1.443550    0.104547   -2.208103
C       2.833667   -0.438908   -2.451647
C       2.630753    0.698877   -1.478177
C       3.203801    2.061621   -1.785993
C       2.494900    0.276323   -0.010759
N       1.319821   -0.617068    0.116556
H       0.464359    2.092961   -0.662553
H      -1.235290    1.768891   -0.313532
H      -0.080293    1.909142    1.013047
H      -0.773275   -0.513901    0.454372
H       0.269363   -1.651927   -1.502197
H       0.938772    0.643497   -3.003673
H       3.073259   -1.425574   -2.065422
H       3.303986   -0.201173   -3.400182
H       3.180838    2.271028   -2.860116
H       2.647730    2.858566   -1.277394
H       4.248527    2.132877   -1.460631
H       3.375832   -0.275508    0.338223
H       2.388106    1.153109    0.639929
