25

C       2.312883    0.964119   -0.265582
C       0.966285    0.563192    0.352470
C       0.287579   -0.532222   -0.482071
C       1.167943    0.136055    1.822250
C      -0.102965   -0.137072    2.611446
C      -1.079358    1.019336    2.716076
O      -0.737183   -1.412509    2.378877
C      -0.151897   -1.174617    3.664638
C       0.981633   -2.070968    4.095329
H       3.008100    0.115907   -0.274705
H       2.187156    1.298712   -1.300552
H       2.787522    1.776840    0.294972
H       0.322239    1.452699    0.337902
H       0.904374   -1.438549   -0.504710
H      -0.685933   -0.813332   -0.074547
H       0.146773   -0.199634   -1.516134
H       1.803818   -0.754494    1.836401
H       1.723455    0.926416    2.346049
H      -1.462150    1.303536    1.731087
H      -1.933650    0.745520    3.339933
H      -0.595916    1.899813    3.153833
H      -0.895103   -1.011132    4.449960
H       1.705281   -2.238673    3.296087
H       1.503439   -1.639218    4.956622
H       0.587783   -3.046477    4.400243
