16

N       0.083661    1.450662    0.006961
C       0.037616    0.040293    0.008829
C      -0.167312   -0.828736   -1.282360
N       0.863486   -1.805556   -1.331690
C       0.847226   -2.322137   -0.154429
N       1.905675   -1.826813    0.744124
C       0.702704   -0.892720    1.111658
C      -0.375428   -1.929469    0.750965
C      -1.136877   -0.939389   -0.101689
H       0.483293    1.846236   -0.834016
H      -0.801146    1.895629    0.209322
H      -0.459232   -0.303864   -2.185661
H       1.985833   -2.427200    1.571275
H       0.785591   -0.434878    2.097290
H      -0.797748   -2.643802    1.450901
H      -2.201135   -0.760641   -0.169075
