13

C      -0.407473    1.514550   -0.000313
C       0.146422    0.115710    0.011008
O       1.007495   -0.102331   -1.152219
C       2.165497   -0.550910   -0.642310
N       3.302458   -0.964487   -1.084910
O       4.006564   -1.236836    0.105695
N       3.243317   -0.969080    1.260353
C       2.130067   -0.553662    0.762630
O       0.947794   -0.106982    1.215284
H       0.407079    2.242323    0.023383
H      -1.000606    1.665440   -0.905536
H      -1.048492    1.661126    0.872384
H      -0.629177   -0.657033   -0.010021
