21

C      -0.037558    1.523627    0.046794
C      -0.081646    0.022639    0.141245
C      -1.336023   -0.743503   -0.287786
C      -1.303576   -2.028209    0.537266
C      -1.406440   -1.891786    2.040643
C      -0.052240   -2.072681    1.394347
C       0.765074   -3.324180    1.606095
C       0.663899   -0.779823    1.123840
O       1.125311   -0.667402   -0.234162
H       0.921855    1.905245    0.404553
H      -0.165747    1.847926   -0.992155
H      -0.840340    1.976283    0.638557
H      -2.240050   -0.151324   -0.099969
H      -1.298129   -0.950621   -1.363083
H      -1.675766   -2.942603    0.088468
H      -1.666741   -0.922651    2.457713
H      -1.807860   -2.734526    2.594155
H       0.123367   -4.208024    1.677646
H       1.459789   -3.475641    0.773245
H       1.353109   -3.267058    2.529850
H       1.317820   -0.334560    1.872845
