15

O       0.082424    0.167727   -0.839108
C       0.032480    1.201833   -0.248427
C      -1.076283    1.992429    0.459088
C      -0.066214    3.171475    0.630650
O       0.284483    3.500551    1.969772
C       1.352771    2.692639    2.419965
C       2.005843    2.050673    1.190707
O       3.038815    1.442382    1.173390
C       1.074803    2.327910    0.007508
H      -1.949172    2.190073   -0.169208
H      -1.417568    1.553299    1.401829
H      -0.351728    4.093069    0.123187
H       2.076490    3.306150    2.966145
H       1.012177    1.891798    3.095500
H       1.634014    2.662413   -0.866619
