18

O       0.124831    1.428924    0.176656
C       0.050803    0.015645    0.240567
C      -1.344801   -0.521310   -0.125141
C      -1.397894   -2.026450   -0.054771
N      -0.784218   -2.687166   -1.048821
C      -0.779432   -4.020380   -1.008293
C      -1.374682   -4.767319    0.004647
C      -2.008758   -4.081823    1.034914
C      -2.019625   -2.692060    1.005484
H       0.017580    1.686491   -0.744589
H       0.799280   -0.465763   -0.404695
H       0.290009   -0.249407    1.276079
H      -2.085246   -0.071734    0.543549
H      -1.580819   -0.209445   -1.149609
H      -0.275284   -4.519876   -1.832917
H      -1.340885   -5.850619   -0.019055
H      -2.489178   -4.619173    1.846228
H      -2.506297   -2.123142    1.790513
