17

O      -0.002231    1.421988   -0.099723
C       0.032575    0.008099   -0.042351
C      -1.351378   -0.549840    0.098552
O      -2.302146   -0.189362   -0.974604
C      -3.080984   -1.001046   -0.031643
C      -1.904604   -2.022526    0.155350
C      -1.902981   -2.446307    1.609772
C      -2.246267   -1.340848    2.280506
C      -2.442289   -0.290854    1.207728
H      -0.675494    1.651701   -0.751510
H       0.506257   -0.428346   -0.936509
H       0.634432   -0.270651    0.828911
H      -4.131746   -1.185055   -0.267940
H      -1.664326   -2.713717   -0.650735
H      -1.668883   -3.431456    1.988171
H      -2.361422   -1.196006    3.345519
H      -2.724443    0.733181    1.442716
