18

O       1.896794   -0.372359   -0.079869
C       2.086387    0.819287   -0.099716
N       1.091877    1.790061   -0.045739
C      -0.245866    1.387554    0.038817
O      -1.173387    2.157058    0.090150
C       1.410020    3.215507   -0.075019
C       2.398469    3.829250    0.951567
C       2.862492    4.796172   -0.174371
C       2.266213    3.814141   -1.222260
H       3.095351    1.261479   -0.164252
H      -0.339312    0.293616    0.052135
H       0.445349    3.719524   -0.019828
H       1.970691    4.253405    1.862231
H       3.193220    3.131250    1.230213
H       2.317090    5.742621   -0.147769
H       3.930169    5.009613   -0.240819
H       3.021923    3.111707   -1.585524
H       1.730825    4.226010   -2.080127
