20

C      -0.386200    1.501481    0.348618
C      -0.168642   -0.006356    0.307063
C       0.184780   -0.560020   -1.086832
C       1.506803   -1.080406   -0.584227
C       1.224752   -0.559267    0.836900
C       2.236698    0.459122    1.348425
N       0.420343   -1.985165   -0.947259
C       0.458157   -2.858334   -2.018172
O      -0.308904   -2.850817   -2.951485
H       0.408303    2.049614   -0.167090
H      -1.332073    1.757780   -0.140263
H      -0.434578    1.868953    1.378239
H      -1.026932   -0.516813    0.753708
H      -0.082030   -0.161298   -2.058430
H       2.461391   -1.144606   -1.096467
H       1.113020   -1.368780    1.564499
H       2.439956    1.246043    0.615660
H       1.888436    0.938722    2.268197
H       3.188307   -0.034879    1.572695
H       1.236921   -3.633709   -1.880879
