14

C       0.064114    1.427854    0.077907
N      -0.082714   -0.005035   -0.104946
C       0.583059   -0.644857   -1.100292
N       1.193537   -0.023239   -2.092694
O       1.672078   -1.086383   -2.880353
C       1.305920   -2.215219   -2.256325
N       0.635780   -2.020848   -1.156793
C       1.673763   -3.447468   -2.841730
C       1.992387   -4.489284   -3.348671
H       1.087748    1.720453    0.348498
H      -0.198013    1.942159   -0.850259
H      -0.620522    1.754703    0.862710
H      -0.249873   -0.573203    0.709525
H       2.271375   -5.412985   -3.794059
