15

O       0.076967    1.134595   -0.519886
C       0.053880   -0.225024   -0.130670
C      -1.368372   -0.654427    0.177721
O      -2.247018   -0.482512   -0.984218
C      -2.716483   -1.842198   -0.884393
C      -1.743759   -2.142897    0.266010
O      -0.951582   -2.997477   -0.611552
C      -1.815567   -2.808291   -1.681219
O      -1.738100   -3.275056   -2.766669
H      -0.483174    1.209090   -1.301518
H       0.484660   -0.881062   -0.898074
H       0.668734   -0.310905    0.771900
H      -1.772938   -0.075856    1.017007
H      -3.800369   -1.948268   -0.914207
H      -1.960482   -2.623170    1.216086
