21

C       0.047982    1.564272   -0.089007
C       0.016241    0.108786   -0.050049
C      -0.008808   -1.095187   -0.020319
C      -0.045388   -2.553915    0.026275
C       0.608597   -3.171795    1.300471
C      -0.204179   -4.454428    1.612930
C      -0.331853   -4.758697    3.109595
C      -1.518265   -4.178870    0.912188
C      -1.444437   -3.155143    0.067115
H       1.027800    1.950014    0.214417
H      -0.156110    1.941543   -1.097431
H      -0.699987    1.999046    0.583520
H       0.470159   -2.934923   -0.869892
H       1.677868   -3.357003    1.171762
H       0.491924   -2.462421    2.126066
H       0.275316   -5.322743    1.133711
H      -0.820584   -3.931066    3.635172
H      -0.924342   -5.663678    3.282009
H       0.651977   -4.913654    3.565199
H      -2.399842   -4.790526    1.076208
H      -2.241784   -2.784940   -0.566424
