18

O      -0.142785    1.506064   -0.098872
C      -0.011529    0.110214    0.001548
C      -0.033130   -0.592757    1.381102
C      -1.533847   -0.147405    1.527046
C      -1.344596   -0.721270    0.091191
C      -1.984440   -1.342136   -1.107657
C      -1.260770   -2.429079   -1.405864
C      -0.126755   -2.668863   -0.403215
N      -0.602303   -1.853582    0.734525
H       0.736286    1.896941   -0.077892
H       0.722608   -0.273226   -0.713591
H       0.729862   -0.627866    2.160339
H      -2.134013   -0.766272    2.193540
H      -1.711953    0.921699    1.622241
H      -2.805035   -0.935153   -1.682603
H      -1.410526   -3.068648   -2.268460
H      -0.046084   -3.718160   -0.097834
H       0.842161   -2.394155   -0.851857
