15

C      -0.023625   -1.192188   -0.075218
C       0.023900    0.008278   -0.006695
C       0.055723    1.422553    0.096187
N       0.278007    2.313227   -1.074028
C       1.199048    2.397745    0.069388
C       0.521756    3.309946    1.093560
C      -0.679588    2.288222    1.152302
C      -2.011864    2.765143    0.815364
N      -3.073497    3.146457    0.563919
H      -0.065132   -2.251509   -0.141069
H       0.717231    1.744464   -1.797429
H       2.255903    2.191306   -0.039178
H       1.042035    3.369952    2.049962
H       0.277900    4.309103    0.730730
H      -0.708567    1.777459    2.116856
