16

N       0.223085    1.276798    0.500143
C       1.184766    2.178999    0.027192
C       1.186136    2.872728   -1.128490
N       0.294894    2.951110   -2.160382
C       0.004254    2.041520   -3.020616
C       0.552585    0.708935   -3.158779
C       0.617125   -0.302981   -2.255361
N      -0.069420   -0.510418   -1.102933
C      -0.318574    0.146696   -0.042204
H      -0.043761    1.416840    1.463479
H       1.936053    2.439435    0.765728
H       1.980831    3.614477   -1.207664
H      -0.664733    2.371708   -3.822280
H       0.894635    0.466237   -4.163277
H       1.110520   -1.213438   -2.598263
H      -1.066201   -0.280008    0.630653
