18

C      -0.012565    1.537142   -0.010995
C      -0.026362   -0.008374    0.012242
C       0.759864   -0.527394    1.237678
C      -1.470408   -0.534885    0.034996
O      -2.084161   -0.048856    1.218352
C       0.641185   -0.523390   -1.252556
O       0.121826   -1.221900   -2.087139
C       2.055444   -0.108528   -1.440627
N       3.156499    0.208307   -1.597203
H       1.008586    1.927646   -0.013445
H      -0.533097    1.925440   -0.892360
H      -0.527344    1.905705    0.878258
H       0.256693   -0.189803    2.145676
H       0.793963   -1.621535    1.252953
H       1.785961   -0.150114    1.243218
H      -1.999387   -0.190654   -0.864777
H      -1.459531   -1.633552    0.007865
H      -2.988906   -0.372357    1.242442
