19

C       0.021010    1.536097    0.097162
C       1.503118    1.922632   -0.004164
O       2.197807    1.716936    1.249362
C       2.634487    0.408392    0.823962
C       1.819735   -0.702176    1.476022
O       0.422924   -0.603606    1.230441
C       0.034300   -0.006693   -0.010786
C       1.085896   -0.258504   -1.106092
C       2.196225    0.683148   -0.640929
H      -0.428428    1.881511    1.030864
H      -0.542035    1.960968   -0.743075
H       1.688416    2.923108   -0.403257
H       3.703606    0.255163    1.013288
H       2.210821   -1.672239    1.125498
H       1.945482   -0.668745    2.563602
H      -0.951097   -0.420730   -0.238471
H       1.389626   -1.307666   -1.166733
H       0.698492    0.036408   -2.087178
H       3.007338    0.865279   -1.344656
