15

C      -0.053272    1.455381    0.042443
N       0.009495    0.008355   -0.012747
C       0.050872   -0.754252   -1.159917
C       0.104850   -2.057539   -0.717072
O       0.158452   -3.165666   -1.484136
N       0.098484   -2.123990    0.634105
C       0.040408   -0.857102    1.047450
C       0.012258   -0.425000    2.390948
C      -0.012346   -0.044966    3.534090
H       0.825040    1.897171   -0.437937
H      -0.953985    1.820351   -0.460329
H      -0.079643    1.762584    1.088082
H       0.038552   -0.319987   -2.144077
H       0.186925   -3.913605   -0.874566
H      -0.033519    0.274644    4.546526
