17

O      -0.016951    1.485292   -0.023656
C       0.086489    0.080633    0.128784
C      -1.266981   -0.569537    0.035076
C      -2.335971   -0.422704    1.136748
N      -2.762397   -1.838078    0.920513
C      -1.638587   -2.074417   -0.028540
C      -2.069215   -1.756649   -1.448309
N      -2.481397   -2.416175   -2.427509
O      -1.833839   -0.390024   -1.311928
H      -0.423547    1.642870   -0.883856
H       0.758185   -0.365115   -0.621040
H       0.520627   -0.097073    1.117941
H      -1.890129   -0.228724    2.119323
H      -3.120960    0.313825    0.945752
H      -2.697490   -2.410785    1.752627
H      -0.978688   -2.922615    0.150452
H      -2.686350   -1.815544   -3.228311
