18

O       0.317775    1.231570    0.516867
C       0.039573   -0.079967    0.100654
C      -1.458133   -0.431040   -0.035545
C      -2.401604    0.726277   -0.425252
C      -2.312244    0.207625   -1.880135
N      -1.651170   -1.047996   -1.407427
C      -0.342320   -1.323502   -2.000000
C       0.596109   -0.336519   -1.310884
O       1.536435    0.269905   -1.759668
H       1.083003    1.513404   -0.008443
H       0.522968   -0.811136    0.773221
H      -1.793576   -1.081429    0.775986
H      -3.394576    0.635379    0.016554
H      -2.006631    1.723650   -0.237559
H      -3.252670    0.024575   -2.408053
H      -1.671213    0.828765   -2.521157
H      -0.025811   -2.353406   -1.780957
H      -0.343169   -1.194709   -3.084659
