15

C      -0.073537    1.612264    0.049741
C      -0.017468    0.088852   -0.045459
N      -1.349981   -0.514311   -0.070596
C      -1.960638   -0.991111   -1.185022
N      -3.166046   -1.444042   -1.200058
C      -3.867880   -1.319968   -0.000238
O      -5.065336   -1.324485    0.087308
N      -3.078273   -1.211492    1.214719
N      -1.906445   -0.771059    1.163938
H       0.940909    2.019739    0.079578
H      -0.592971    2.044139   -0.810701
H      -0.595299    1.919727    0.959912
H       0.502597   -0.231972   -0.953125
H       0.507312   -0.336570    0.813183
H      -1.351298   -1.006692   -2.089532
