21

O      -0.260893    1.367063   -0.031844
C      -0.082914   -0.039610    0.025905
C       0.090680   -0.610963    1.458678
C      -1.457884   -0.513960    1.607209
C      -1.495578   -0.681860    0.050267
O      -2.496140   -0.066278   -0.705426
C      -1.385827   -2.158760   -0.339505
C      -0.550604   -2.944339    0.697913
C       0.552000   -2.075323    1.350133
H       0.559925    1.795250    0.228888
H       0.623501   -0.378693   -0.746136
H       0.709925   -0.026395    2.145016
H      -1.977472   -1.245510    2.229833
H      -1.765796    0.493719    1.888828
H      -2.323821    0.882739   -0.659449
H      -2.394327   -2.578803   -0.414258
H      -0.943474   -2.220186   -1.340884
H      -1.221491   -3.300533    1.485940
H      -0.118200   -3.841562    0.245081
H       1.476971   -2.114467    0.760024
H       0.798624   -2.475694    2.339503
