18

C       0.007763    1.465748   -0.150877
C       1.295514    0.746301   -0.043834
C       1.958786    0.397479    1.267710
C       1.296931    0.621079    2.683315
C      -0.217960    0.404203    2.477114
C      -0.074130   -0.612027    1.319339
C       1.430250   -1.008688    1.628805
O       1.670307   -0.752635    3.027624
N       0.003269   -0.005599   -0.045541
H      -0.327843    2.089586    0.667720
H      -0.306502    1.824449   -1.127713
H       1.917673    0.636655   -0.930273
H       3.041357    0.506557    1.303202
H       1.649618    1.368130    3.394285
H      -0.618175   -0.067797    3.377286
H      -0.823658    1.280147    2.253358
H      -0.801409   -1.422503    1.312262
H       1.824679   -1.951555    1.252377
