21

O       0.236254    1.468377   -0.056332
C       0.094537    0.046773    0.016706
C      -1.374484   -0.395705    0.211138
C      -2.174883   -0.709992   -1.044934
C      -2.284965    0.075353   -2.335175
C      -1.007922    0.825027   -2.716081
C      -0.189658   -0.493683   -2.474338
C       0.734348   -0.532160   -1.253943
C      -1.522191   -1.251421   -2.280596
H      -0.230470    1.849003    0.694323
H       0.666588   -0.311685    0.886632
H      -1.365746   -1.312424    0.816230
H      -1.889412    0.357594    0.824306
H      -3.117520   -1.203783   -0.815076
H      -3.263488    0.263568   -2.763369
H      -1.011269    1.086642   -3.777752
H      -0.733954    1.699320   -2.126774
H       0.355082   -0.810620   -3.366251
H       1.656085    0.028958   -1.441991
H       1.024491   -1.572880   -1.060105
H      -1.769536   -2.213886   -2.713270
