14

O      -0.002634    1.472414    0.160766
C      -0.027338    0.091738    0.002211
C       0.644047   -0.652941    1.192399
C       0.060913   -0.263469    2.473082
N      -0.401475    0.034867    3.488301
C      -1.481912   -0.399705   -0.155738
O      -1.783696   -1.561896   -0.130716
C       0.717827   -0.305180   -1.279017
O       1.248768    0.531742   -1.961552
H       0.540879    1.823261   -0.564659
H       0.515279   -1.731076    1.054476
H       1.715295   -0.427329    1.205806
H      -2.203678    0.426570   -0.314556
H       0.729914   -1.382703   -1.525549
