15

O       0.303818    0.723766    1.030378
C      -0.064294    0.165093   -0.225906
C      -1.417470   -0.363997   -0.158199
C      -2.541055   -0.805820   -0.129924
C      -3.847960   -1.319678   -0.091781
C      -5.064459   -0.826634   -0.526794
N      -6.075253   -1.709321   -0.266129
C      -5.498383   -2.735944    0.323821
N      -4.159197   -2.557925    0.453487
H       1.195233    1.075864    0.937031
H      -0.021905    0.920180   -1.027833
H       0.624046   -0.645442   -0.517580
H      -5.244068    0.120012   -1.012422
H      -5.998541   -3.626274    0.674742
H      -3.496542   -3.187912    0.874464
