16

O      -0.167636    1.346493    0.044322
N      -0.010555   -0.048023   -0.004680
C      -1.136347   -0.633339   -0.018817
C      -2.518119   -0.016119    0.030472
C      -3.415023   -1.226866    0.061319
C      -2.740203   -2.372875    0.019109
C      -1.233919   -2.165331   -0.051160
C      -0.627884   -2.779429   -1.231120
C      -0.151024   -3.303304   -2.201538
H       0.745190    1.654002    0.045670
H      -2.625322    0.631664    0.910367
H      -2.695700    0.633923   -0.836813
H      -4.494710   -1.146182    0.113233
H      -3.166885   -3.367912    0.017917
H      -0.743587   -2.580473    0.841387
H       0.281055   -3.755537   -3.059503
