15

N      -0.067892    1.372711   -0.031965
C       0.065822    0.010840    0.084132
O       1.118840   -0.560886    0.239350
N      -1.160010   -0.692740    0.045430
C      -2.445695   -0.220355    0.150159
N      -3.329177   -1.181037    0.096761
C      -2.600527   -2.348782   -0.051199
N      -3.273161   -3.555835   -0.209729
C      -1.258611   -2.081284   -0.075670
H       0.810180    1.858329   -0.128226
H      -0.837640    1.751321   -0.559492
H      -2.668291    0.823153    0.310425
H      -4.206721   -3.511158    0.176272
H      -2.771246   -4.359039    0.141677
H      -0.376158   -2.686915   -0.169815
