20

C       0.112132    1.455656    0.337561
C      -0.110521   -0.057863    0.302340
C      -1.386160   -0.458091   -0.453197
C      -1.572461   -1.956382   -0.488049
O      -2.006042   -2.600600    0.718716
C      -2.856924   -2.674888   -0.439593
C      -4.214663   -2.036819   -0.282905
O      -5.034732   -2.809919    0.578734
H       1.026118    1.710159    0.882750
H       0.201738    1.867912   -0.673832
H      -0.722211    1.967792    0.829602
H       0.754635   -0.547214   -0.164142
H      -0.171066   -0.451764    1.323664
H      -2.252109    0.021700    0.013229
H      -1.335409   -0.089512   -1.487136
H      -0.752179   -2.487328   -0.979064
H      -2.892856   -3.671180   -0.885089
H      -4.118513   -1.004601    0.078821
H      -4.727198   -2.008462   -1.250871
H      -4.553925   -2.897292    1.409817
