21

C       0.032705    1.555124   -0.014815
C      -0.002554    0.017288    0.041315
C       0.803718   -0.509894    1.241819
C      -1.426454   -0.516191    0.037592
C      -2.318538   -0.220324    1.075262
C      -3.620287   -0.711841    1.064895
C      -4.059695   -1.512846    0.012603
C      -3.184655   -1.815707   -1.026208
C      -1.882432   -1.320480   -1.009965
H       1.065337    1.916254   -0.068424
H      -0.507118    1.931994   -0.888682
H      -0.427000    1.995800    0.876322
H       0.481846   -0.356277   -0.869691
H       0.378927   -0.161872    2.189485
H       0.812981   -1.603762    1.263052
H       1.840416   -0.159684    1.194646
H      -1.993637    0.402286    1.903312
H      -4.293774   -0.468911    1.880698
H      -5.074471   -1.896574    0.003616
H      -3.513663   -2.438451   -1.852062
H      -1.206482   -1.562365   -1.825442
