19

C      -0.187335    1.557162    0.039274
C      -0.012480    0.046229    0.013989
O      -1.224891   -0.603610   -0.300924
C       1.177115   -0.486095   -0.799857
N       1.297179   -0.616734   -2.052394
N       1.889722   -0.804210    0.349085
C       0.739397   -0.568161    1.225152
C       0.776105   -0.157900    2.656969
C       0.185290   -1.502551    2.243211
H       0.737145    2.059167    0.338619
H      -0.474048    1.912783   -0.954480
H      -0.980051    1.827377    0.743921
H      -1.161487   -0.871672   -1.225927
H       2.155166   -1.103086   -2.317396
H       2.564210   -1.552948    0.437543
H       1.735100   -0.163317    3.165388
H       0.099550    0.623909    2.987339
H      -0.891435   -1.630850    2.266592
H       0.751951   -2.395974    2.487227
