17

N       0.004839   -1.017089   -0.546345
C       0.033125    0.107925   -0.289074
C       0.026938    1.535849    0.044395
O       1.330024    2.043909   -0.064226
C       1.398244    3.428970    0.256931
C       2.828279    3.875956    0.170457
C       3.421425    4.239502   -1.165667
C       3.133150    5.318029   -0.153851
H      -0.671141    2.050065   -0.637739
H      -0.375464    1.654689    1.064633
H       0.772676    4.009131   -0.442673
H       0.995185    3.594163    1.270361
H       3.487547    3.384006    0.879002
H       4.453894    3.969790   -1.355074
H       2.778295    4.173316   -2.036766
H       2.298756    5.985076   -0.344896
H       3.965513    5.788009    0.357130
