22

C      -0.027902    1.528971   -0.561849
C      -0.044543    0.197245    0.197408
C      -1.408761   -0.462148    0.208454
C      -1.854073   -1.325147   -0.954854
C      -1.555696   -1.944357    0.383254
C      -0.468835   -2.997151    0.657541
C      -1.578422   -3.922805    1.238894
C      -2.561191   -2.714389    1.252497
H       0.969105    1.980928   -0.552915
H      -0.327158    1.388985   -1.605827
H      -0.723313    2.247011   -0.113160
H       0.683452   -0.490057   -0.251528
H       0.291746    0.361662    1.230180
H      -2.191597    0.140454    0.668022
H      -2.888648   -1.269291   -1.280068
H      -1.142677   -1.491576   -1.759911
H       0.086436   -3.376417   -0.204837
H       0.252010   -2.676249    1.417089
H      -1.884164   -4.696996    0.530939
H      -1.368556   -4.396631    2.200258
H      -2.680700   -2.278674    2.250269
H      -3.555237   -2.882329    0.828134
