18

C       0.072277    1.521907    0.009010
C      -0.016424   -0.015697    0.002774
C      -1.391092   -0.501521    0.012834
C      -2.540612   -0.874894    0.021341
C      -3.874651   -1.328411    0.031066
C      -5.078985   -0.639382    0.042520
C      -6.124382   -1.594205    0.048673
C      -5.542826   -2.844233    0.040925
N      -4.187092   -2.675370    0.030366
H       1.118287    1.842205    0.001060
H      -0.424970    1.942796   -0.868937
H      -0.409068    1.934733    0.899560
H       0.506730   -0.406810   -0.880219
H       0.522346   -0.414834    0.872685
H      -5.175077    0.434845    0.045930
H      -7.184128   -1.391669    0.057770
H      -5.980180   -3.829657    0.042073
H      -3.500296   -3.409134    0.022958
