17

O       0.534311    0.655355   -0.822016
C      -0.021033   -0.270166    0.052099
C      -0.018601   -0.007281    1.587382
C      -1.424347   -0.609261    1.637145
C      -1.871113   -1.760006    2.451830
N      -2.481062   -0.424202    2.607996
C      -1.597403   -0.444617    0.110103
C      -2.265367    0.788970   -0.267615
N      -2.712341    1.811187   -0.574367
H       0.046262    1.485964   -0.751447
H       0.434213   -1.234649   -0.183089
H       0.768986   -0.476268    2.180874
H      -0.032608    1.069478    1.791970
H      -2.530494   -2.513300    2.028768
H      -1.195184   -2.125094    3.221451
H      -2.129268    0.044486    3.439224
H      -2.019291   -1.288766   -0.439315
