18

O      -0.075873    1.542931   -0.258463
C       0.012611    0.229896    0.257493
C      -1.295865   -0.510954    0.064276
O      -1.558449   -0.687432   -1.384452
C      -1.569468   -2.054924   -1.244603
N      -1.635093   -2.980437   -2.091937
C      -1.379901   -2.049366    0.253293
C      -0.199192   -2.909331    0.719213
O      -0.475083   -4.267638    0.460487
H      -0.293285    1.462020   -1.194393
H       0.837487   -0.331480   -0.204939
H       0.227188    0.322547    1.327807
H      -2.117914    0.056002    0.508653
H      -1.700529   -2.633032   -3.049430
H      -2.278995   -2.363598    0.788970
H       0.729555   -2.583343    0.226130
H      -0.051316   -2.811831    1.799709
H      -0.708000   -4.336341   -0.477540
