19

O      -0.013610    1.385141   -0.201205
C       0.018944   -0.027913   -0.039815
C      -1.419540   -0.522529    0.034731
C      -2.197948   -0.325281   -1.255411
C      -2.011569   -1.516956   -2.179903
C      -3.295152   -1.360404   -1.389125
C      -2.853488   -2.512003   -0.449210
C      -1.572838   -2.668756   -1.240597
C      -1.540689   -2.033025    0.140337
H       0.891055    1.698183   -0.290135
H       0.527738   -0.515992   -0.885799
H       0.558620   -0.307248    0.879694
H      -1.919402   -0.022176    0.873589
H      -2.333250    0.660578   -1.681082
H      -1.843426   -1.448140   -3.245490
H      -4.298838   -1.152414   -1.732989
H      -3.485769   -3.264464    0.001266
H      -1.035930   -3.565587   -1.516812
H      -1.102648   -2.584114    0.964874
