18

O      -0.978532    0.584318    0.065032
C       0.156226   -0.225030   -0.196388
C       1.107686    0.383733   -1.245146
C       0.396448    0.629840   -2.557515
C       1.179637    0.612928   -3.856129
C       0.220394   -0.504049   -3.527400
O       0.718741   -1.746437   -3.118571
C       0.885679   -0.525351    1.053284
N       1.464835   -0.719538    2.034394
H      -0.676740    1.396620    0.488367
H      -0.239226   -1.165005   -0.593979
H       1.524804    1.319418   -0.851095
H       1.942364   -0.307154   -1.389705
H      -0.431886    1.327452   -2.494688
H       0.918441    1.317206   -4.638387
H       2.237653    0.380354   -3.787352
H      -0.715221   -0.550151   -4.083522
H       1.085016   -2.194936   -3.887537
