18

O       0.157578    1.336487   -0.184998
C       0.101666   -0.052863   -0.045598
C       0.807579   -0.768121   -1.209514
C       0.120614   -2.139724   -1.339452
C      -1.353504   -1.860670   -0.968853
C      -1.262172   -0.813073    0.123183
O      -0.755389   -1.378131    1.392636
C       0.381724   -0.610756    1.338012
N       1.278444   -0.388059    2.187749
H       0.328482    1.717753    0.683190
H       0.628843   -0.155759   -2.100838
H       1.887698   -0.828010   -1.057385
H       0.230013   -2.571711   -2.336741
H       0.552916   -2.850414   -0.627961
H      -1.888494   -1.424156   -1.821237
H      -1.903489   -2.750771   -0.651333
H      -2.153862   -0.214524    0.312761
H       1.107772   -0.891699    3.060077
