17

O       0.354022    1.191679   -0.440080
C       0.152105   -0.054128    0.173481
C      -0.142731   -0.134286    1.701354
C      -1.239695   -1.189619    1.378776
C      -1.232957   -0.668583   -0.068247
C      -2.370148    0.200854   -0.630065
C      -2.429237   -0.874566   -1.712674
O      -3.058346   -1.116979   -2.690246
O      -1.399868   -1.610778   -1.172425
H       1.284579    1.426250   -0.378475
H       0.922052   -0.783466   -0.113148
H       0.672636   -0.432600    2.362050
H      -0.571975    0.807242    2.052854
H      -0.857495   -2.212361    1.424986
H      -2.182997   -1.135330    1.924747
H      -3.270810    0.279771   -0.018876
H      -2.068367    1.183852   -0.992887
