19

C       0.145880    1.563527    0.065246
C       0.186113    0.053968    0.049639
O       0.809644   -0.416382   -1.123216
C       1.269966   -1.722747   -0.808699
C       1.551729   -1.638833    0.690544
C       1.562457   -2.841866    1.596958
C       2.840461   -2.066291    1.304383
O       3.797283   -2.602534    0.438995
O       0.973324   -0.433908    1.130699
H       1.161289    1.957802   -0.017581
H      -0.452827    1.928366   -0.773177
H      -0.302770    1.914711    0.997763
H      -0.830731   -0.376533    0.128047
H       0.498449   -2.476190   -1.028025
H       2.163269   -1.938415   -1.396753
H       1.125897   -2.740480    2.584538
H       1.451712   -3.817546    1.131852
H       3.226128   -1.436125    2.105662
H       4.232701   -3.334099    0.889355
