19

O       0.633265    0.599322   -1.030039
C       0.099521   -0.316127   -0.108216
C       0.176168   -0.010793    1.408470
C      -1.269556   -0.566150    1.577672
C      -2.288272    0.385126    2.196642
C      -2.600830    1.394365    1.084482
O      -3.006142    2.516554    1.239334
C      -2.303714    0.731397   -0.270586
C      -1.446859   -0.508809    0.010604
H       0.419795    1.490913   -0.736398
H       0.571988   -1.274182   -0.343364
H       0.976961   -0.486795    1.978546
H       0.219928    1.068665    1.602162
H      -1.294515   -1.570298    2.001538
H      -3.224684   -0.136744    2.438582
H      -1.954975    0.895219    3.104063
H      -3.265497    0.463881   -0.723444
H      -1.841132    1.449574   -0.954589
H      -1.836856   -1.399636   -0.484050
