10

O      -0.026449   -0.022009    0.162265
C      -0.006377    1.175474    0.068498
N      -1.147723    1.956413    0.010290
C      -1.105631    3.324554   -0.096239
N      -0.053037    4.046907   -0.154534
O       1.174589    3.355369   -0.103245
C       1.287198    1.990466    0.002320
O       2.367661    1.490580    0.040179
H      -2.034824    1.470818    0.050036
H      -2.053711    3.848785   -0.134972
