16

N      -0.441429    1.142675   -0.454137
C      -0.518255   -0.028656   -0.001320
O      -1.132378   -0.989798   -0.740113
C      -1.048729   -2.298706   -0.256675
C      -1.850010   -2.708915    0.956932
C      -2.289258   -3.140022   -0.413369
O      -3.468618   -2.539178   -0.879630
C      -3.479900   -2.133921   -2.179080
O      -4.453769   -1.666778   -2.680337
H       0.028414    1.747952    0.215877
H      -0.144111   -0.399282    0.960895
H      -0.089202   -2.778489   -0.435894
H      -1.436686   -3.444100    1.637179
H      -2.466742   -1.941535    1.411106
H      -2.173352   -4.179034   -0.708023
H      -2.512759   -2.292968   -2.686093
