19

C       0.003896    1.465684   -0.021741
C       0.007967    0.010616   -0.004297
C      -0.000456   -1.192874   -0.001931
C       0.036968   -2.647376    0.041516
C       0.655043   -3.160164    1.354957
O       0.641993   -4.575065    1.391887
C      -0.677373   -5.079772    1.249768
C      -1.296581   -4.580262   -0.049840
O      -1.290901   -3.160769   -0.093913
H       0.566562    1.856086   -0.876696
H      -1.018521    1.852533   -0.092220
H       0.451985    1.876866    0.889383
H       0.653006   -3.032201   -0.790202
H       1.698815   -2.846166    1.434986
H       0.086712   -2.738673    2.198739
H      -0.601587   -6.171315    1.256632
H      -1.300830   -4.761849    2.101298
H      -0.735312   -4.991408   -0.905140
H      -2.342319   -4.890775   -0.134509
