15

O      -0.796891    0.962149    0.467933
C       0.238943    0.732259   -0.097960
C       1.451230    1.650313   -0.004220
O       2.635297    0.914075   -0.325937
C       3.403782    1.702429   -1.207639
C       2.743485    2.179216   -2.488713
O       1.326459    2.067100   -2.359886
C       1.410977    2.753033   -1.068346
C       2.894456    3.109942   -1.304639
H       0.395443   -0.155571   -0.742478
H       1.506862    2.071642    1.009782
H       4.461811    1.472900   -1.190746
H       3.171903    2.169336   -3.484197
H       0.650279    3.522774   -0.946686
H       3.411683    4.041835   -1.125166
