16

C      -0.055489    1.479882    0.161986
C       0.028181   -0.038286    0.112218
O       1.074195   -0.659649    0.199558
N      -1.163111   -0.673834   -0.035483
C      -2.540584   -0.247936   -0.292460
C      -2.920265   -1.748403   -0.460609
C      -1.422946   -2.100875   -0.214735
H       0.942036    1.875552    0.350444
H      -0.428077    1.882009   -0.786605
H      -0.736796    1.815852    0.950582
H      -3.018456    0.269336    0.547924
H      -2.660800    0.366775   -1.192861
H      -3.605755   -2.126423    0.298178
H      -3.298823   -2.014557   -1.447588
H      -0.890129   -2.537645   -1.065924
H      -1.211183   -2.704068    0.673876
