19

C      -0.823182    0.190737   -0.086606
O      -0.178969   -0.017897   -1.333163
C       1.209661   -0.235750   -1.217678
C       1.600467   -1.688314   -0.914460
O       2.701363   -1.985623   -0.500102
N       0.607948   -2.595289   -1.199662
C       0.743714   -3.967551   -1.046087
N      -0.208554   -4.748104   -1.335674
C       0.014054   -6.167397   -1.149222
H      -0.724937   -0.678576    0.578860
H      -0.415126    1.073117    0.425826
H      -1.881215    0.357865   -0.298642
H       1.658244    0.028392   -2.182311
H       1.671300    0.399422   -0.450940
H      -0.267360   -2.239404   -1.560465
H       1.727053   -4.258743   -0.664452
H       1.015461   -6.415115   -0.763663
H      -0.733916   -6.567468   -0.454821
H      -0.129382   -6.689130   -2.102552
