19

C      -0.169123    1.503686   -0.110111
C       0.040833   -0.002471   -0.160653
C       1.311598   -0.558871   -0.909049
C       1.746454   -1.211058    0.407201
O       1.868191   -0.158098    1.379603
C       0.566171   -0.694896    1.119306
C      -0.217886   -1.247399    2.280617
C      -0.915124   -0.217802    3.048761
C      -1.494073    0.632248    3.669892
H       0.719545    1.994960    0.295749
H      -0.356537    1.905527   -1.111604
H      -1.021759    1.761781    0.525310
H      -0.858698   -0.511428   -0.523241
H       1.063928   -1.276659   -1.694664
H       2.007955    0.187323   -1.300325
H       2.341816   -2.101998    0.574396
H      -0.948031   -1.975925    1.903804
H       0.471970   -1.796466    2.932449
H      -1.998261    1.382573    4.226944
