16

O       0.007977    1.476822   -0.108553
C       0.006296    0.081450    0.013682
C       0.933456   -0.583249   -1.021658
C       2.302720   -0.099659   -0.889277
C       3.402973    0.363296   -0.739286
C       0.124855   -0.522137    1.439481
O      -1.089173   -1.278047    1.240252
C      -1.408429   -0.525092    0.052434
H       0.927221    1.765772   -0.178881
H       0.894796   -1.671490   -0.896711
H       0.555243   -0.357367   -2.026495
H       4.389586    0.740186   -0.625627
H       0.984658   -1.164817    1.658100
H       0.015832    0.239105    2.222399
H      -2.178476    0.235522    0.232114
H      -1.709543   -1.169452   -0.781605
