23

C      -0.365766    1.704260   -0.041236
C      -0.273444    0.177102   -0.213099
C      -1.602669   -0.501472   -0.203772
C      -2.249077   -1.203582   -1.143973
C      -3.552345   -1.623779   -0.455249
C      -3.934158   -0.278564    0.249609
C      -2.581047   -0.556185    0.986581
C      -2.974578   -2.085935    0.941334
C      -3.932120   -2.629082    1.995047
H       0.630717    2.156855   -0.029595
H      -0.936052    2.154314   -0.859788
H      -0.864576    1.968581    0.896812
H       0.244201   -0.056379   -1.150971
H       0.352393   -0.228295    0.595247
H      -1.941193   -1.450469   -2.151025
H      -4.275487   -2.220352   -1.012581
H      -3.981870    0.613075   -0.379691
H      -4.816771   -0.337339    0.891249
H      -2.303410   -0.054657    1.915361
H      -2.112687   -2.755110    0.853759
H      -4.818200   -2.006221    2.142377
H      -4.275174   -3.632137    1.716588
H      -3.424356   -2.716050    2.962529
