17

C       0.185056    1.411820   -0.098999
O      -0.159002    0.058186    0.146263
C       0.586319   -0.552949    1.174151
C      -0.040438   -1.918879    1.474392
C      -1.474500   -1.796578    2.001585
O      -2.018845   -3.057271    2.349466
C       2.010771   -0.698600    0.790542
N       3.119308   -0.805112    0.482074
H       1.225111    1.509645   -0.436815
H      -0.482888    1.766956   -0.885612
H       0.043972    2.029049    0.800385
H       0.562125    0.070915    2.084564
H      -0.025500   -2.512546    0.552996
H       0.573686   -2.442361    2.213428
H      -1.479997   -1.205136    2.924666
H      -2.098111   -1.267816    1.269507
H      -2.170383   -3.550441    1.536993
