14

N      -0.187304    1.394398    0.109888
C       0.092680    0.038807    0.042020
O       1.221967   -0.408023    0.041270
N      -1.041318   -0.753214    0.018542
C      -1.023625   -2.140549   -0.001927
N      -2.174675   -2.811286    0.047021
N      -1.771632   -4.081638   -0.001306
N      -0.469746   -4.287259   -0.076919
C       0.045767   -3.056726   -0.079180
H       0.624657    1.965964   -0.066455
H      -1.034962    1.735390   -0.317492
H      -1.948931   -0.337413    0.157624
H      -2.430857   -4.841263    0.021884
H       1.101779   -2.868024   -0.128083
