22

C       0.035948    1.560641   -0.057439
C       0.026153    0.050973   -0.034045
C       0.625077   -0.948784   -1.035344
N       0.015840   -1.898623   -0.001675
C       0.572965   -0.917241    1.055369
C      -0.350231   -0.979858    2.260069
C      -1.701685   -0.981210    1.508663
C      -1.200598   -0.924460    0.062296
C      -2.263876   -1.040374   -1.005194
H       1.060251    1.948788   -0.086267
H      -0.491066    1.945899   -0.937567
H      -0.452514    1.975489    0.831750
H       0.193088   -1.030416   -2.035250
H       1.716136   -1.018156   -1.090871
H       1.651214   -0.994017    1.213519
H      -0.187428   -1.888608    2.845901
H      -0.220388   -0.120763    2.925269
H      -2.287822   -1.887798    1.686968
H      -2.335708   -0.121756    1.749162
H      -3.013814   -0.252158   -0.874800
H      -1.872255   -0.960368   -2.022029
H      -2.777621   -2.003997   -0.919146
