21

O       0.324496    1.146975   -0.533177
C       0.019472   -0.238996   -0.501031
C      -1.384450   -0.511273    0.057557
C      -2.542339   -0.064353   -0.879060
C      -3.168128   -1.335320   -1.441416
C      -2.254643   -2.321419   -2.123078
C      -2.637858   -2.517227   -0.670952
C      -1.662177   -2.023518    0.382923
O      -0.496517   -2.827288    0.521356
H      -0.297981    1.574628   -1.129847
H       0.151564   -0.685356   -1.499977
H       0.760527   -0.696567    0.157954
H      -1.428614    0.062758    0.988184
H      -3.299042    0.489949   -0.314218
H      -2.199520    0.611373   -1.675283
H      -4.204108   -1.298923   -1.759637
H      -2.701173   -3.002153   -2.839533
H      -1.247158   -2.014718   -2.385770
H      -3.266562   -3.364362   -0.420869
H      -2.148526   -2.082268    1.362773
H      -0.224249   -3.096392   -0.362576
