15

C      -0.099234    1.597121   -0.084922
C       0.024873    0.053846   -0.011240
N       0.732924   -0.388639    1.193667
C       2.076756   -0.137550    1.390875
N       2.739291    0.665613    0.664194
C      -1.332728   -0.528311    0.062180
N      -2.395729   -0.969497    0.148993
C       0.666690   -0.460980   -1.251205
N       1.139521   -0.871996   -2.220783
H       0.899633    2.023323   -0.153138
H      -0.689540    1.876576   -0.959749
H      -0.597697    1.950344    0.819765
H       0.382214   -1.241570    1.601566
H       2.461979   -0.696652    2.251449
H       3.701892    0.739032    0.982005
