18

C      -0.072261    1.567911    0.105440
C       0.007017    0.046751   -0.007475
C       0.734587   -0.479416   -1.285837
C       0.739130   -2.032526   -1.265545
C       0.028906   -0.017934   -2.491462
C      -0.577633    0.331584   -3.468074
C       2.124060    0.003649   -1.307933
C       3.268000    0.371174   -1.295739
H       0.926635    2.012929    0.129561
H      -0.614688    1.997280   -0.741816
H      -0.594104    1.854708    1.023304
H       0.535731   -0.369189    0.857480
H      -1.000159   -0.384845   -0.010218
H      -0.288486   -2.405335   -1.250921
H       1.242868   -2.427054   -2.150128
H       1.262778   -2.389341   -0.374664
H      -1.099416    0.649155   -4.336825
H       4.276371    0.704348   -1.300252
