18

C      -0.041334    1.527808   -0.032001
C       0.001375   -0.000790    0.007161
O       0.616927   -0.374171    1.231865
C      -1.375202   -0.550295   -0.055200
N      -2.426816   -1.029153   -0.082704
C       0.829376   -0.542993   -1.176953
C       0.769990   -2.054545   -1.492279
C       0.181653   -1.597311   -2.843617
O       0.249744   -0.204856   -2.447086
H       0.976362    1.909083    0.086484
H      -0.445230    1.863936   -0.988636
H      -0.658752    1.912378    0.782037
H       0.583137   -1.334421    1.314332
H       1.841421   -0.133248   -1.061802
H       1.735928   -2.557394   -1.540716
H       0.086188   -2.636515   -0.870569
H       0.805847   -1.795254   -3.721730
H      -0.847761   -1.906949   -3.047541
