17

C       0.205489    1.642864   -0.022530
C       0.121277    0.122771   -0.014383
C       0.719421   -0.713352   -1.191912
O       1.797663   -0.112548   -1.891005
C       3.001277   -0.459597   -1.226105
O       2.786759   -1.699775   -0.585779
C       1.437064   -1.676843   -0.193403
C       1.048408   -0.660587    0.937215
O       1.425264   -0.485813    2.057497
H       1.204480    1.975632   -0.315396
H      -0.510547    2.074082   -0.727895
H      -0.010446    2.037338    0.974311
H      -0.911421   -0.208602    0.163483
H       0.012608   -1.114405   -1.918429
H       3.800051   -0.573019   -1.963369
H       3.269807    0.313381   -0.486265
H       1.071121   -2.696986   -0.067133
