19

C      -0.146484    1.559257   -0.045057
C       0.044979    0.042769    0.015535
C       0.910146   -0.461018   -1.165033
O       0.740314   -0.159562   -2.325090
C       1.951767   -1.345415   -0.605420
C       1.853153   -1.371539    0.732562
C       0.748564   -0.534279    1.249484
C       0.932579    0.226125    2.553351
C       0.006353   -0.950915    2.506635
H       0.797784    2.084432    0.130004
H      -0.507902    1.833983   -1.039502
H      -0.873458    1.907983    0.695010
H      -0.934496   -0.439282   -0.103295
H       2.678713   -1.860958   -1.218896
H       2.500065   -1.931160    1.401741
H       1.880627    0.120831    3.070133
H       0.500927    1.218590    2.613955
H      -1.061835   -0.761486    2.528314
H       0.306907   -1.870777    2.997235
