21

C      -0.062160    1.587627    0.132961
C       1.470346    1.415824    0.044046
O       1.303044    0.140407    0.742376
C       0.015885    0.047072    0.051828
C       0.276440   -0.466652   -1.416007
C      -0.179896    0.553156   -2.492609
C       0.962729    1.628362   -2.498753
C       1.959020    1.116724   -1.424998
C       1.806695   -0.408172   -1.610469
H      -0.350640    1.899877    1.138210
H      -0.610728    2.166329   -0.606600
H       2.125878    2.097603    0.590125
H      -0.701289   -0.562961    0.605243
H      -0.160073   -1.457293   -1.562947
H      -0.244984    0.055572   -3.464956
H      -1.166716    0.978391   -2.291323
H       1.457826    1.657855   -3.474097
H       0.599352    2.640264   -2.300856
H       2.973476    1.491498   -1.579676
H       2.365706   -0.998111   -0.888679
H       2.088330   -0.713209   -2.623876
