9

F       0.086108    0.084413    0.001995
C      -0.060241    1.377987    0.011411
N      -1.189932    1.931615    0.029621
C      -1.220230    3.352101    0.037912
O      -2.249532    3.960114    0.055442
N       0.041452    4.032844    0.024257
C       1.093208    3.340546    0.006215
O       1.152278    1.960682   -0.001920
H       2.095734    3.755223   -0.005243
