13

N       0.001811    1.263907    0.214513
C       0.091322   -0.086340    0.030798
O       1.117682   -0.702779   -0.127275
C      -1.295469   -0.751723   -0.014180
O      -1.295562   -2.162244    0.245810
C      -2.135778   -2.050861    1.415727
C      -2.178263   -0.533845    1.219360
O      -2.626056    0.420584    1.781062
H       0.865380    1.769178    0.340139
H      -0.838694    1.664270    0.605261
H      -1.780935   -0.496047   -0.966524
H      -3.098156   -2.565322    1.304732
H      -1.639219   -2.390285    2.333120
