19

C      -0.049294    1.508497    0.019655
C       0.034220   -0.008206    0.023465
C       0.729662   -0.712143   -1.186610
C       0.530853   -2.136702   -0.595252
C       1.104671   -1.917362    0.795163
C       0.805773   -0.668890    1.160311
C      -1.035204   -2.115262   -0.483740
O      -1.583534   -1.841771    0.809127
C      -1.355062   -0.746731   -0.082449
H       0.947596    1.958097   -0.030952
H      -0.622751    1.872752   -0.840131
H      -0.538047    1.881621    0.926364
H       0.192983   -0.559111   -2.130598
H       1.779712   -0.428953   -1.305715
H       0.923392   -2.979360   -1.163930
H       1.564557   -2.686877    1.401255
H       0.973415   -0.206732    2.125278
H      -1.642986   -2.733439   -1.137255
H      -2.236840   -0.191663   -0.391334
