20

C       0.974260    0.997127    1.024405
C      -0.014803    0.155235    0.216232
O      -1.225103    0.886950    0.027370
C       0.618064   -0.260987   -1.113983
C       0.757877   -1.581671   -1.753526
C      -0.444583   -2.541898   -1.743920
C      -1.702691   -1.987790   -1.114631
C      -1.226762   -1.442574   -2.421789
N      -0.038663   -0.491265   -2.445330
H       1.883143    0.427319    1.247257
H       1.255161    1.899483    0.470813
H       0.515278    1.302644    1.968108
H      -0.261684   -0.732020    0.809830
H      -1.280127    1.122841   -0.904410
H       1.483355    0.365774   -1.335735
H       1.705677   -1.906024   -2.175637
H      -0.347516   -3.581723   -2.024748
H      -2.544990   -2.664758   -1.235928
H      -1.752602   -1.397616   -0.213770
H      -1.816040   -1.454605   -3.329572
