15

C      -0.010752    1.473799   -0.102500
C      -0.014700   -0.009783    0.198387
N      -0.048741   -0.570629    1.336217
N       0.025402   -0.776483   -0.971243
C       0.036149   -2.131532   -1.130724
N       0.076779   -2.719183   -2.301583
C       0.069765   -4.034527   -1.929069
N       0.028793   -4.269361   -0.647422
O       0.005518   -2.961722   -0.093723
H       0.891075    1.758904   -0.655804
H      -0.876836    1.751988   -0.713416
H      -0.043200    2.046900    0.824576
H      -0.074948    0.128490    2.075401
H       0.052114   -0.290051   -1.853471
H       0.096205   -4.849118   -2.638908
