15

O      -0.103660    1.316730   -0.873996
C       0.003875    0.101870   -0.167020
C      -1.368233   -0.500427    0.102490
O      -1.973290   -1.138043   -1.035971
C      -1.616029   -1.976857    0.059970
C      -0.521792   -2.972911   -0.178069
O      -0.342991   -3.923292    0.538401
C      -2.254982    0.303798    0.908262
C      -2.969637    0.972321    1.604918
H      -0.543626    1.129168   -1.710965
H       0.625421   -0.628140   -0.702226
H       0.492404    0.335184    0.783513
H      -2.441651   -2.351092    0.663029
H       0.096831   -2.779557   -1.079884
H      -3.605328    1.569529    2.211642
