23

C      -0.111246    1.550500    0.064291
C       0.004995    0.020134    0.067257
C       0.878066   -0.451687    1.240037
C      -1.395048   -0.617869    0.076655
C      -1.403137   -2.129719   -0.108275
O      -2.749983   -2.556067   -0.216477
C      -2.890186   -3.941685   -0.373489
C      -4.371296   -4.260962   -0.479921
O      -4.806204   -5.372322   -0.623513
H       0.875631    2.022045    0.015260
H      -0.696895    1.904955   -0.790254
H      -0.604457    1.907074    0.976410
H       0.503350   -0.279156   -0.866631
H       1.056573   -1.531052    1.218548
H       1.855343    0.041714    1.220916
H       0.404692   -0.210826    2.199664
H      -1.908760   -0.373149    1.015426
H      -1.998078   -0.183974   -0.729831
H      -0.844945   -2.409958   -1.018515
H      -0.918721   -2.641832    0.738142
H      -2.383269   -4.312495   -1.281382
H      -2.467811   -4.503263    0.477936
H      -5.024343   -3.362968   -0.412365
