18

C      -0.331646    1.460048   -0.102076
N       0.039686    0.051224    0.002540
C       1.368366   -0.444281   -0.311286
C       2.542390    0.517351   -0.271966
O       2.448051    1.224143    0.963637
C       1.740311    0.415414    1.909706
C       1.061186    1.264779    2.883414
C       0.499085    1.923324    3.716059
C       0.832569   -0.498081    1.081895
H       0.450274    2.170093    0.188347
H      -0.624599    1.655465   -1.138575
H      -1.206074    1.631343    0.531745
H       1.430118   -1.308591   -0.967814
H       3.484391   -0.049909   -0.337874
H       2.537544    1.265850   -1.071962
H       2.447819   -0.235132    2.453567
H       0.002140    2.514545    4.445134
H       0.459722   -1.397653    1.564023
