20

C      -0.060842    1.378433   -0.661799
C       0.027265   -0.002954   -0.040164
C       1.306774   -0.757396   -0.148149
N       0.889731   -0.174445    1.141451
C      -1.280952   -0.756411    0.003554
C      -1.572562   -1.726309    1.149068
C      -2.298114   -0.428690    1.090156
C      -1.838139   -1.167668   -1.313706
O      -2.933345   -1.652232   -1.479332
H       0.924261    1.853487   -0.713509
H      -0.462320    1.335912   -1.680217
H      -0.724260    2.023887   -0.075457
H       1.294168   -1.843306   -0.177585
H       2.131890   -0.296793   -0.685005
H       1.406128    0.684260    1.315316
H      -2.117593   -2.622897    0.877593
H      -0.778410   -1.833866    1.877500
H      -2.010954    0.345199    1.793320
H      -3.338029   -0.436949    0.784455
H      -1.149912   -1.016929   -2.176478
