21

C      -0.017328    1.443246    0.080627
N       0.131049    0.001366    0.020856
C       0.581666   -0.688827    1.131305
O       1.036803   -0.127247    2.118237
N       0.506638   -2.058963    1.033972
C       0.205007   -2.809093   -0.184303
C       0.438662   -4.274188    0.222262
C       1.513909   -4.169894    1.316122
C       1.115648   -2.896087    2.072289
H       0.707573    1.821472    0.801327
H       0.183454    1.882268   -0.901384
H      -1.018951    1.755969    0.406597
H      -0.451167   -0.489285   -0.636773
H      -0.828668   -2.648086   -0.519788
H       0.870468   -2.510262   -1.007575
H      -0.482620   -4.694325    0.639999
H       0.733720   -4.896471   -0.625725
H       1.554485   -5.049471    1.962654
H       2.502238   -4.041488    0.860912
H       1.953492   -2.367072    2.529183
H       0.392112   -3.117035    2.869257
