19

C       0.025605    1.539730   -0.000508
C      -0.051101    0.050565    0.009999
C      -1.089176   -0.782835   -0.056382
C      -0.622380   -2.216517   -0.007194
C      -1.127663   -2.957585    1.236074
C      -0.943955   -2.984595   -1.294382
O       0.815459   -2.096361    0.095912
C       1.182924   -0.780195    0.108500
O       2.325329   -0.420274    0.187661
H       0.640087    1.886135   -0.838353
H      -0.964293    1.995143   -0.077639
H       0.512695    1.905000    0.909907
H      -2.137963   -0.521769   -0.135223
H      -2.217361   -3.053755    1.206788
H      -0.692335   -3.959711    1.278516
H      -0.849597   -2.416695    2.143938
H      -0.536852   -2.462676   -2.163845
H      -0.508609   -3.986724   -1.252221
H      -2.026605   -3.081796   -1.420746
