16

C      -0.129591    1.495954   -0.094890
C       0.227420    0.016389   -0.112483
O       1.355144   -0.396288   -0.195552
N      -0.912620   -0.791183   -0.021536
C      -0.969901   -2.173178   -0.011298
N       0.036976   -2.940674   -0.085552
N      -2.312916   -2.658359    0.093679
C      -3.496445   -1.977579    0.181060
O      -3.637286   -0.770338    0.185631
H       0.790637    2.075355   -0.155387
H      -0.776974    1.749949   -0.940907
H      -0.667180    1.757652    0.822536
H      -1.816913   -0.332284    0.044947
H      -0.232904   -3.922367   -0.060700
H      -2.381283   -3.665109    0.104085
H      -4.353694   -2.670453    0.250434
