16

O      -0.078226    1.383539   -0.035605
C       0.018988    0.009896   -0.038823
C       0.404914   -0.982193    1.112054
C      -1.019991   -1.029842    1.672006
C      -1.177743   -0.953235    0.149510
N       0.022686   -1.919789   -0.056849
C       0.656713   -0.944647   -1.067117
C       0.144839   -0.996925   -2.418405
C      -0.283978   -1.019146   -3.541700
H       0.808165    1.761923   -0.016960
H       1.368627   -1.096750    1.611797
H      -1.322039   -1.969399    2.140692
H      -1.353448   -0.161323    2.242754
H      -2.064342   -1.039125   -0.477056
H       1.751067   -1.012013   -1.050428
H      -0.663036   -1.045303   -4.533469
