18

C      -0.045839    1.581391   -0.142007
C       0.048835    0.066442   -0.056595
N       1.160086   -0.539550   -0.811794
C       1.757376   -1.144430    0.265840
O       2.720557   -1.853273    0.389508
C       0.690493   -0.566981    1.217802
C       1.069304    0.213919    2.489192
O       0.283470   -0.662013    3.320675
C      -0.076148   -1.480947    2.191469
H       0.907966    2.051338    0.116338
H      -0.315048    1.895936   -1.155752
H      -0.817122    1.958786    0.537257
H      -0.918655   -0.391249   -0.299984
H       1.348161   -0.601311   -1.801894
H       2.135675    0.175569    2.742575
H       0.720300    1.252605    2.536435
H      -1.162295   -1.529240    2.041184
H       0.327807   -2.497412    2.273433
