21

C      -0.001274    1.559550    0.062176
C       1.292491    0.761001   -0.001999
C      -0.032589    0.066896    0.004880
C      -0.533377   -0.973320    1.017891
C      -2.060720   -0.875528    0.796644
C      -2.013423   -1.360843   -0.670891
C      -1.479415   -2.807095   -0.490265
C      -0.188843   -2.092017   -0.066396
C      -0.525602   -0.914079   -1.041908
H      -0.247197    2.047519    1.000759
H      -0.296034    2.120881   -0.819063
H       1.861625    0.787485   -0.926363
H       1.905025    0.720234    0.893507
H      -0.150725   -1.014288    2.037745
H      -2.651424   -1.541869    1.432441
H      -2.427602    0.147049    0.919564
H      -2.862650   -1.138104   -1.316146
H      -2.002143   -3.462417    0.214611
H      -1.339409   -3.327025   -1.442974
H       0.792256   -2.561077   -0.012991
H      -0.236179   -0.895269   -2.092348
