19

C       0.154991    1.338771    0.130109
O      -0.307157    0.066582   -0.261284
C       0.502493   -0.541435   -1.231633
C       1.868416   -1.153937   -0.806488
C       1.532140   -2.381005   -1.703594
C       1.907371   -3.772229   -1.217594
C       0.038631   -1.945150   -1.659810
H       1.154895    1.292342    0.587692
H       0.200645    2.035578   -0.722317
H      -0.550109    1.730440    0.867425
H       0.627280    0.128554   -2.097887
H       2.785109   -0.596117   -1.012963
H       1.839921   -1.423912    0.254744
H       1.933905   -2.220911   -2.710534
H       1.515352   -3.954696   -0.210628
H       1.502777   -4.547524   -1.878179
H       2.994978   -3.901699   -1.180512
H      -0.487682   -2.424659   -0.828296
H      -0.563867   -2.036830   -2.566290
