17

C      -0.059566    1.526680   -0.016845
C       0.022642    0.016402    0.008649
C       1.348650   -0.690515   -0.257411
C       0.736207   -0.697723    1.104700
C       1.191453   -0.232386    2.494599
O      -0.106210   -0.728180    3.033142
C       0.270673   -1.797927    2.066367
C       1.672436   -1.696064    2.741651
O       2.525831   -2.337382    3.255103
H       0.859078    1.978551    0.371445
H      -0.204357    1.893886   -1.038367
H      -0.893274    1.886710    0.594467
H      -0.856810   -0.492129   -0.379589
H       1.340970   -1.610111   -0.833287
H       2.224420   -0.069048   -0.418061
H       1.553451    0.732005    2.843049
H      -0.423254   -2.622696    1.919967
