17

C      -0.051202    1.538434   -0.065213
C      -0.065027    0.038935    0.077180
O       1.204581   -0.635369   -0.052355
C       0.559648   -0.655051    1.206378
C       1.267887   -0.183841    2.481491
N       0.979695   -1.501894    3.163602
C      -0.486910   -1.626168    3.186016
C       0.214573   -1.938775    1.921330
H       0.765952    1.978557    0.512408
H       0.077532    1.825957   -1.113825
H      -0.997108    1.964765    0.286353
H      -0.880192   -0.474080   -0.437155
H       2.342915   -0.066269    2.330174
H       0.869228    0.687959    3.011471
H      -0.834513   -2.459164    3.789620
H      -1.096741   -0.727092    3.257895
H       0.300796   -2.936804    1.505363
