20

C      -0.128905    1.551486   -0.003911
C       0.052695    0.020503    0.009099
C       0.745891   -0.470932   -1.238547
C       1.919630   -1.099413   -1.237904
C       2.702176   -1.365000    0.020816
C       2.215871   -0.464681    1.162201
N       0.758866   -0.442058    1.201718
C       0.090733   -0.892175    2.299264
O       0.600408   -1.294687    3.325298
H       0.839557    2.059745    0.006813
H      -0.664071    1.866676   -0.905360
H      -0.702470    1.876353    0.868940
H      -0.948461   -0.430846    0.040524
H       0.222190   -0.276204   -2.170586
H       2.345559   -1.444739   -2.176446
H       2.605355   -2.421124    0.307642
H       3.771382   -1.194210   -0.153470
H       2.554118   -0.815687    2.137371
H       2.594152    0.554837    1.012936
H      -1.007689   -0.853903    2.152724
