17

O      -0.654588    0.843496    0.320083
C       0.050578    1.626441   -0.256079
C       1.575308    1.703072   -0.069782
O       2.158267    2.320355   -1.206271
C       2.593300    3.650632   -1.138010
C       1.708770    4.800285   -0.753958
C       2.833950    4.324403    0.180233
C       2.455312    3.536544    1.371349
C       1.878738    2.340581    1.258687
H      -0.343456    2.373274   -0.982851
H       1.933387    0.664383   -0.061163
H       3.308076    3.816983   -1.936318
H       1.836832    5.739363   -1.282338
H       0.696860    4.597335   -0.421576
H       3.700945    4.969069    0.279306
H       2.658113    3.956966    2.351913
H       1.572609    1.763598    2.124440
