13

O      -0.002383   -0.062325   -0.160344
C      -0.061964    1.136887   -0.060648
C      -1.239809    2.019175   -0.010108
C      -0.877718    3.307330    0.074121
C       0.624629    3.535307    0.077743
C       1.093121    4.301433    1.221501
C       1.462929    4.920798    2.181931
C       1.173296    2.081252    0.033353
O       2.317602    1.739561    0.056942
H      -2.254125    1.642223   -0.033496
H      -1.560703    4.146416    0.144186
H       0.937647    4.037198   -0.849878
H       1.802336    5.468881    3.026213
