21

C       0.594612    1.638053   -0.714004
O      -0.179164    0.459281   -0.667171
C       0.548526   -0.692506   -0.995270
C       1.513735   -1.292853    0.068658
C       0.898305   -2.691440   -0.210341
C       0.536309   -3.581481    0.976547
C      -0.297655   -1.978094   -0.943014
C       1.688599   -3.483798   -1.229364
O       2.705257   -3.125792   -1.767970
H       1.423690    1.616240    0.009002
H       1.017617    1.805671   -1.716802
H      -0.066875    2.471196   -0.465030
H       1.056159   -0.567177   -1.963033
H       2.585992   -1.200405   -0.108112
H       1.258168   -0.936000    1.070050
H      -0.120690   -3.046411    1.668247
H       0.012537   -4.487694    0.650062
H       1.429827   -3.890912    1.530234
H      -1.146325   -1.849624   -0.265903
H      -0.652197   -2.399516   -1.887417
H       1.228406   -4.469628   -1.479799
