16

O      -0.101739    1.327535    0.171198
N       0.012531   -0.050334    0.094857
C      -1.129570   -0.635048   -0.035859
C      -2.431313    0.023551   -0.097337
C      -3.576790   -0.670498   -0.142169
C      -3.629295   -2.171454   -0.168440
C      -2.323790   -2.782491   -0.705179
C      -1.071810   -2.142358   -0.123424
O      -0.105888   -2.786352    0.208548
H       0.817183    1.606982    0.252150
H      -2.436702    1.105815   -0.066833
H      -4.523512   -0.136702   -0.144245
H      -3.829902   -2.543325    0.847222
H      -4.476504   -2.509076   -0.775543
H      -2.268675   -3.860065   -0.537675
H      -2.281032   -2.611717   -1.790415
