16

O       0.019626    1.412907    0.025556
C      -0.003153   -0.001515   -0.017578
C      -1.416447   -0.481082    0.017799
C      -2.533418    0.251305   -0.035904
C      -3.785726   -0.600240    0.025842
C      -3.235405   -2.021709    0.054834
O      -2.481511   -2.390507   -1.102591
C      -1.765610   -1.936569    0.070125
H       0.930938    1.700927   -0.076386
H       0.485832   -0.384879   -0.930615
H       0.550726   -0.439509    0.832831
H      -2.554173    1.327741   -0.147123
H      -4.381938   -0.390699    0.923693
H      -4.443426   -0.438526   -0.836998
H      -3.791688   -2.828841    0.524004
H      -1.114220   -2.677540    0.526399
