18

C      -0.183120    1.343347    0.025174
O      -0.048205   -0.078800    0.056984
C       0.596219   -0.558346    1.151523
O       1.045456    0.125412    2.045241
N       0.645499   -1.915184    1.111517
C       0.529474   -2.845869   -0.016792
C       1.296118   -3.893329    0.828924
O       2.423498   -4.384802    0.151437
C       1.531923   -2.774458    1.895492
H       0.796011    1.828931    0.046512
H      -0.699324    1.570752   -0.908206
H      -0.767394    1.698679    0.878232
H      -0.496921   -3.092267   -0.301403
H       1.094503   -2.541125   -0.903939
H       0.656464   -4.704311    1.197057
H       2.871380   -5.018781    0.720667
H       2.569737   -2.423405    1.922013
H       1.184864   -2.973658    2.913915
