19

C      -0.009884    1.579010   -0.181185
C       0.005333    0.076244   -0.017102
O      -1.164309   -0.555792   -0.478014
C       1.292466   -0.710302   -0.130063
C       0.568740   -0.594920    1.200246
C       1.159183    0.194568    2.355768
O       0.160929    0.894425    3.096863
C       1.964208   -0.674558    3.223890
C       2.584070   -1.408186    3.946954
H       0.913863    2.040588    0.176212
H      -0.117129    1.842312   -1.240765
H      -0.847552    2.014833    0.369875
H      -1.207238   -0.431988   -1.433067
H       1.257487   -1.668553   -0.635378
H       2.223256   -0.163690   -0.249575
H       0.021707   -1.482268    1.506678
H       1.806617    0.985550    1.960788
H      -0.394838    0.235292    3.527932
H       3.145800   -2.044298    4.585584
