20

C       0.060642    1.510698   -0.188839
N       0.084415    0.052042   -0.059801
C       0.722668   -0.478043    1.144541
C       2.164414    0.046072    1.308691
C      -0.073481   -0.169668    2.441428
O      -1.177744    0.304410    2.451005
C       0.729028   -1.946864    1.086721
C       0.694401   -3.151177    1.102099
C       0.662910   -4.606213    1.088612
H       1.060380    1.886788   -0.426600
H      -0.586566    1.762580   -1.033321
H      -0.314356    2.045043    0.695907
H      -0.870112   -0.291682   -0.070802
H       2.178974    1.127628    1.466824
H       2.643232   -0.433896    2.165429
H       2.739909   -0.189337    0.410815
H       0.451230   -0.455686    3.381273
H       1.615308   -5.027722    1.427884
H      -0.125654   -4.993154    1.743151
H       0.472346   -4.984945    0.078617
