19

C      -0.099450    1.274912   -0.580200
O      -0.074609    0.038264    0.092658
C      -1.300578   -0.650038    0.022380
C      -1.134350   -1.967270    0.788263
C      -2.348585   -2.772766    0.782325
C      -3.367608   -3.414571    0.778751
C      -4.588227   -4.205285    0.716422
C      -4.868703   -4.728389   -0.694190
O      -5.966579   -4.792489   -1.175664
H       0.889450    1.726271   -0.470771
H      -0.318176    1.151896   -1.652657
H      -0.851478    1.957200   -0.153467
H      -2.114446   -0.054769    0.467406
H      -1.579664   -0.854238   -1.024211
H      -0.302864   -2.526431    0.342704
H      -0.835061   -1.736420    1.817707
H      -4.500627   -5.089160    1.367465
H      -5.468048   -3.648440    1.055156
H      -3.962019   -5.062545   -1.244047
