21

C       0.136386    1.376533    0.285770
C       0.031574   -0.127460    0.017537
C      -1.396396   -0.576511   -0.229678
C      -1.705172   -2.088253   -0.232239
C      -2.688014   -1.755787    0.904673
C      -2.529073   -2.445373    2.249359
O      -2.249529   -0.368432    0.938297
C      -4.151875   -1.740663    0.479016
O      -4.612024   -2.348665   -0.451827
H       1.169609    1.670704    0.491690
H      -0.212371    1.957519   -0.575038
H      -0.476565    1.653632    1.148118
H       0.631419   -0.403341   -0.860169
H       0.435794   -0.690598    0.867969
H      -1.815718   -0.043313   -1.094327
H      -2.170561   -2.498459   -1.128233
H      -0.864557   -2.714217    0.074322
H      -1.494083   -2.360029    2.591400
H      -3.176920   -1.982943    3.001874
H      -2.790890   -3.505966    2.170764
H      -4.776328   -1.068726    1.110912
