21

C      -0.176247    1.517702   -0.231911
C      -0.023802    0.034260    0.032261
C       1.290218   -0.682509   -0.177126
C       0.721762   -0.551600    1.214757
C       1.410469    0.254925    2.291997
O       2.208035    1.254754    1.704876
C       0.469092    0.672482    3.458758
O       0.998686   -0.369407    4.301062
C       2.081408   -0.624041    3.386016
H       0.721654    2.067434    0.052193
H      -0.371549    1.697346   -1.295214
H      -1.020119    1.934654    0.330399
H      -0.902722   -0.543742   -0.245505
H       1.294520   -1.658465   -0.650475
H       2.151863   -0.064572   -0.403099
H       0.268664   -1.446349    1.633764
H       2.618204    1.768296    2.408491
H       0.684940    1.677529    3.854007
H      -0.609504    0.571966    3.298146
H       2.211615   -1.691143    3.176000
H       3.035232   -0.206239    3.743726
