18

C       0.019815    1.482681    0.075289
C      -0.029150   -0.009158   -0.070770
N      -0.056800   -0.576428   -1.204080
C      -0.049957   -2.027900   -1.283110
C       0.441134   -2.708594    0.014994
C      -0.266753   -2.013682    1.187308
O      -0.030248   -0.606186    1.158260
C       0.200788   -4.142555    0.022546
C      -0.032122   -5.322085    0.022406
H       0.897166    1.775656    0.660782
H       0.062119    1.945455   -0.909592
H      -0.862367    1.840630    0.615804
H      -1.059962   -2.384193   -1.522715
H       0.587252   -2.326019   -2.121955
H       1.517639   -2.518393    0.117972
H      -1.346092   -2.204379    1.136539
H       0.103645   -2.365988    2.151828
H      -0.222488   -6.366851    0.020075
