19

C      -0.128438    1.570453    0.002502
C      -0.078947    0.044572   -0.006693
C      -1.436828   -0.559483   -0.360743
C       1.163114   -0.607677   -0.670370
C       2.084980   -0.326153    0.560289
O       2.568854   -1.695427    0.659118
C       1.168751   -1.837876    0.287870
C       0.685077   -0.622009    1.174838
O       0.410820   -0.576316    2.521288
H       0.843589    2.011981    0.241833
H      -0.441698    1.960061   -0.972678
H      -0.847376    1.931321    0.746736
H      -1.768500   -0.228313   -1.351127
H      -1.413381   -1.654111   -0.369380
H      -2.205552   -0.245408    0.356076
H       1.470745   -0.609739   -1.713789
H       2.780831    0.489066    0.750149
H       0.764919   -2.840338    0.153216
H      -0.450734   -0.978938    2.677208
