16

O      -0.112442    0.160961    0.599139
C      -0.084640    1.219959    0.036577
C      -1.251018    2.110644   -0.309674
C      -0.748522    3.235247   -0.835478
C      -0.601701    4.663202   -0.339934
C       0.911126    4.240403   -0.102908
C       1.260407    3.090460    0.900753
N       1.143716    1.998110   -0.183148
C       0.731520    3.083230   -1.107124
H      -2.215100    1.952481    0.155634
H      -0.627315    5.439931   -1.111031
H      -1.234561    4.956680    0.500176
H       1.657019    5.028504   -0.205143
H       2.289766    3.147224    1.257529
H       0.594262    2.944250    1.755578
H       1.113098    3.065575   -2.128638
