15

O      -0.154852    1.428966    0.016221
C      -0.042687    0.064183    0.006775
C      -1.262950   -0.902351    0.050416
C      -0.355601   -1.860214    0.784435
C      -0.415366   -1.854453   -0.758697
C       0.687175   -0.833290   -1.100687
C       1.807805   -1.063243   -0.069119
O       3.000103   -1.147197   -0.115602
C       0.770379   -0.841302    1.047724
H       0.725178    1.823355   -0.015840
H      -2.330748   -0.743639    0.092367
H      -0.614343   -2.727659    1.375554
H      -0.719309   -2.717544   -1.334477
H       0.860807   -0.537416   -2.132370
H       1.023364   -0.553080    2.065068
