15

C      -0.037755   -1.185176   -0.127671
C       0.032596    0.012308   -0.038577
C       0.073142    1.420384    0.136804
O       0.270443    2.278480   -0.998062
C       1.179314    2.421006    0.084806
C       0.512625    3.305891    1.164740
C      -0.591911    4.270193    0.671946
O      -1.601080    3.227962    0.774819
C      -0.640460    2.282007    1.242240
H      -0.094488   -2.241580   -0.221263
H       2.233583    2.281234   -0.125666
H       1.120129    3.575667    2.025488
H      -0.811851    5.094436    1.359068
H      -0.490559    4.642803   -0.350637
H      -0.936901    1.733304    2.138675
