22

C       0.078846    1.504779   -0.101059
C       0.042098   -0.020183    0.078877
C       0.741435   -0.444360    1.377152
C      -1.393669   -0.557296    0.023435
O      -2.201696   -0.069799    1.083946
C      -2.147347   -0.494147   -1.368220
C      -2.304929   -2.015165   -1.300968
N      -0.927614   -2.567368   -1.249040
C      -1.580411   -2.085328   -0.007726
H       1.111568    1.863469   -0.151930
H      -0.427123    1.821183   -1.019660
H      -0.393145    2.022540    0.743580
H       0.566497   -0.479345   -0.766245
H       0.800472   -1.534495    1.456859
H       1.762731   -0.052268    1.416699
H       0.196998   -0.072789    2.250819
H      -2.282704    0.884341    0.981410
H      -3.093865    0.039949   -1.260891
H      -1.590129   -0.117930   -2.230030
H      -3.126881   -2.615788   -1.669940
H      -1.009445   -3.583740   -1.248612
H      -1.725484   -2.728464    0.851151
