21

C      -0.511938    1.077791   -0.500589
C       0.029603   -0.329571   -0.234833
C       0.995844   -0.855327   -1.325482
O       2.003801   -1.647710   -0.680464
C       1.934827   -1.464572    0.719763
C       2.261458   -0.087539    1.235457
C       3.032171    0.888315    0.356547
O       4.225038    0.314661   -0.153432
C       0.808486   -0.542781    1.060003
H       0.288880    1.821487   -0.543436
H      -1.056899    1.114783   -1.450251
H      -1.206036    1.381257    0.289199
H      -0.828173   -1.012212   -0.180012
H       0.491926   -1.485979   -2.065735
H       1.471251   -0.025764   -1.864201
H       2.196807   -2.365595    1.262515
H       2.572399   -0.078567    2.277459
H       2.406448    1.277324   -0.456729
H       3.339819    1.754396    0.951213
H       3.952817   -0.485104   -0.620892
H       0.227335   -0.680948    1.965111
