16

C       0.025460    1.387544    0.084508
N      -0.061698   -0.048269   -0.003409
C      -0.085548   -0.815295   -1.129429
C      -0.006860   -2.131635   -0.723886
N      -0.078011   -3.334987   -1.458694
C       0.072762   -2.054224    0.689081
N       0.217920   -3.149900    1.549248
N       0.050468   -0.797300    1.119762
H       1.064907    1.732510    0.153681
H      -0.436047    1.831799   -0.800718
H      -0.512216    1.721477    0.974359
H      -0.162008   -0.375557   -2.111815
H      -0.021743   -3.175981   -2.457139
H       0.674491   -3.964492   -1.196827
H      -0.455626   -3.879563    1.341895
H       0.121911   -2.864025    2.516391
