21

C      -0.006575    1.621953   -0.085830
C      -0.011461    0.089320   -0.069595
C      -1.401960   -0.552589    0.058746
C      -1.353507   -2.076212   -0.085812
C      -2.768150   -2.651218    0.002840
C      -3.632714   -2.089388    1.124052
O      -4.615691   -2.649318    1.527170
O      -3.321979   -0.868181    1.624154
C      -2.048555   -0.236303    1.405064
H       1.003873    2.004192   -0.258633
H      -0.649391    2.010980   -0.883160
H      -0.356867    2.046598    0.859975
H       0.444874   -0.279715   -0.996390
H       0.628813   -0.274547    0.745675
H      -2.047716   -0.148072   -0.734817
H      -0.887939   -2.364810   -1.034410
H      -0.724093   -2.493492    0.711797
H      -3.316596   -2.430020   -0.922627
H      -2.776260   -3.738377    0.108436
H      -1.375273   -0.543427    2.218228
H      -2.247634    0.831063    1.523082
