19

C       0.166630    1.273165   -0.179395
O      -0.150830   -0.067316    0.141045
C       0.619901   -0.607445    1.180808
C       0.169853   -2.023747    1.469154
O       0.687367   -2.978315    0.521984
C       1.343074   -2.839866    1.797385
C       2.589716   -1.981645    1.725211
C       2.152412   -0.762542    0.870989
O       2.391183   -0.949571   -0.506923
H       1.167124    1.354169   -0.620012
H      -0.573681    1.608871   -0.909446
H       0.106469    1.923323    0.707835
H       0.499266   -0.007133    2.102184
H      -0.833430   -2.226194    1.832087
H       1.286210   -3.713720    2.440761
H       2.883865   -1.679631    2.737952
H       3.441227   -2.487460    1.261748
H       2.708629    0.135217    1.151015
H       1.816180   -1.677427   -0.779146
