14

O      -0.464798    0.994368   -0.877839
C      -0.151111   -0.229974   -0.472224
C       0.163031   -1.433303   -1.103752
O       0.269143   -1.813650   -2.437425
C       0.068113   -1.004642   -3.463470
N      -0.247925    0.226608   -3.387260
C       0.394844   -2.355675   -0.063169
N       0.244346   -1.801366    1.129458
N      -0.086711   -0.512725    0.849861
H      -0.444604    0.944365   -1.877494
H       0.216256   -1.559280   -4.391529
H      -0.349275    0.644752   -4.306379
H       0.663946   -3.396907   -0.160384
H      -0.258746    0.139968    1.595444
