20

C      -0.049453    1.505498    0.051859
C      -0.022631    0.013148   -0.048997
C       0.814362   -0.834635   -1.054867
C       1.062963   -2.127064   -0.312553
C       0.853146   -1.873183    1.167520
N      -0.189024   -0.838837    1.150205
C      -1.076161   -1.047786   -0.016411
C      -2.564870   -1.027596    0.129671
C      -0.253434   -1.909878   -1.021882
H       0.923508    1.894969    0.375508
H      -0.286523    1.962063   -0.915415
H      -0.798714    1.827854    0.779593
H       1.398031   -0.467791   -1.887482
H       1.776343   -2.847256   -0.695289
H       0.493759   -2.754934    1.708797
H       1.748402   -1.491475    1.669959
H      -2.870306   -0.258369    0.843743
H      -3.052684   -0.823446   -0.829826
H      -2.936945   -1.992632    0.494850
H      -0.641295   -2.521328   -1.824493
