18

C      -0.480060    1.412491    0.074496
C       0.148298    0.023080   -0.116390
O       1.102112    0.037552   -1.165059
C       0.756421   -0.485251    1.164238
N       2.063094   -0.334591    1.396609
N       2.240967   -0.846727    2.609687
C       3.549426   -0.940692    3.223818
N       1.149754   -1.327063    3.189813
C       0.189832   -1.105085    2.288671
H       0.279643    2.129170    0.402343
H      -0.899643    1.757083   -0.874368
H      -1.276865    1.387926    0.825296
H      -0.639612   -0.675012   -0.427071
H       1.958384    0.230570   -0.764710
H       4.065436    0.015776    3.124558
H       3.402847   -1.184269    4.274961
H       4.144405   -1.722466    2.742671
H      -0.831087   -1.391781    2.484386
