14

C      -0.062813    1.551902    0.024298
C       0.014491    0.024431    0.005755
C       0.767911   -0.515354   -1.226920
N       2.160514   -0.060211   -1.228312
C       0.644828   -1.988817   -1.298307
N       0.593321   -3.143143   -1.347682
H       0.935577    1.993234   -0.006285
H      -0.623157    1.927777   -0.838855
H      -0.570868    1.899371    0.928304
H       0.518813   -0.345202    0.907373
H      -0.989896   -0.411659    0.014374
H       0.290794   -0.109072   -2.127576
H       2.661335   -0.490663   -0.455277
H       2.628243   -0.362529   -2.077432
