15

C      -0.124184    1.482303   -0.040163
C      -0.041876    0.032438   -0.022392
C       0.019140   -1.172498   -0.007713
C       0.104151   -2.572963    0.009227
C       1.171252   -3.433277    0.007624
C       2.634499   -3.163816   -0.013080
N       0.638899   -4.701204    0.030078
N      -0.620925   -4.664541    0.044569
O      -1.024643   -3.307897    0.031951
H       0.872929    1.933038    0.000053
H      -0.617619    1.836772   -0.951721
H      -0.696677    1.853407    0.816843
H       3.124572   -3.587426    0.869323
H       3.103928   -3.610883   -0.895136
H       2.820463   -2.087774   -0.029575
