14

O       0.057038    1.480628   -0.020057
C      -0.009627    0.072062   -0.034170
C       0.620700   -0.499391    1.259987
O       1.714060   -0.260756    1.705529
N      -0.358007   -1.298022    1.846032
C      -1.539621   -1.228942    1.126310
C      -1.425113   -0.450186    0.028898
C      -2.463595   -0.258946   -0.967696
O      -2.319619    0.331369   -2.015951
H       0.970211    1.711138    0.195424
H       0.519478   -0.349921   -0.904240
H      -0.243732   -1.736615    2.746455
H      -2.404060   -1.789689    1.457762
H      -3.440714   -0.721500   -0.694467
