19

C      -0.027332    1.514617    0.009872
C      -0.046425   -0.015798    0.002456
C      -1.460641   -0.577366    0.012777
O      -1.384706   -1.991500    0.005032
C      -2.629155   -2.610397    0.013397
C      -2.465667   -4.124394    0.003819
O      -1.399579   -4.689221   -0.009251
C      -3.731334   -4.845599    0.011941
C      -4.782364   -5.432089    0.018808
H       0.998762    1.892681    0.002259
H      -0.538591    1.925912   -0.867597
H      -0.522239    1.917141    0.900682
H       0.472828   -0.400208   -0.882487
H       0.489109   -0.408918    0.873765
H      -2.007782   -0.230531    0.906619
H      -2.024235   -0.221711   -0.867271
H      -3.229449   -2.341769    0.903002
H      -3.245964   -2.332397   -0.861914
H      -5.702351   -5.964912    0.024660
