20

C      -0.164446    1.504674    0.055603
C      -0.009633    0.005478   -0.076985
C       0.664848   -0.717755   -1.208311
N       1.216906   -0.747082    0.167473
C       2.471729    0.055597    0.165341
C       2.697519    0.676236   -1.231436
C       4.080361    0.414114   -1.838244
C       1.589835    0.049269   -2.099933
O       1.533954    0.101640   -3.303736
H       0.628708    2.081649   -0.420828
H      -1.113218    1.812921   -0.394742
H      -0.197097    1.785259    1.114340
H      -0.874241   -0.528458    0.316861
H       0.221281   -1.621140   -1.615478
H       2.430835    0.800199    0.965536
H       3.284458   -0.636757    0.406489
H       2.530361    1.760637   -1.226756
H       4.313514   -0.655920   -1.834159
H       4.103273    0.760998   -2.874468
H       4.861211    0.933171   -1.274695
