15

C       0.001563    1.448633   -0.073962
C       0.046469   -0.052129   -0.237760
O       1.063319   -0.685724   -0.384601
C      -1.289829   -0.754046   -0.208785
N      -2.405912   -0.159945   -0.058186
C      -3.436560   -1.209212   -0.091589
C      -2.643469   -2.528179   -0.290151
O      -1.263540   -2.097064   -0.354891
H       1.017252    1.843261   -0.109409
H      -0.610660    1.896407   -0.862470
H      -0.478472    1.711221    0.873450
H      -4.009518   -1.193420    0.841239
H      -4.139848   -1.008697   -0.906491
H      -2.742221   -3.229062    0.542923
H      -2.881638   -3.048147   -1.221652
