15

O       0.065320    1.327779    0.342349
C       0.010385   -0.035018   -0.030483
C      -1.424504   -0.451439   -0.015459
C      -2.594119    0.285618   -0.087577
N      -3.683232   -0.527935   -0.063830
C      -3.210866   -1.761146    0.020687
N      -1.832301   -1.751153    0.054492
C      -3.948150   -3.021325    0.076809
O      -5.148886   -3.140108    0.053594
H       0.937888    1.665653    0.121198
H       0.435585   -0.190724   -1.036383
H       0.591223   -0.671283    0.660217
H      -2.678938    1.359130   -0.145433
H      -1.236927   -2.560779    0.132195
H      -3.278291   -3.913382    0.146250
