19

C      -0.029289    1.336834   -0.350831
C       1.292906    0.892064    0.163064
N       0.188236   -0.056247   -0.013566
C      -0.380155   -0.592304    1.198786
C      -1.545891   -0.145096    2.057022
C      -2.871865    0.159436    1.303383
N      -2.655817    0.048970   -0.164160
C      -2.858443   -1.166212    0.661727
C      -1.534672   -1.538049    1.374479
H      -0.644932    1.928527    0.321968
H      -0.183250    1.544692   -1.405598
H       2.140941    0.753451   -0.502546
H       1.553811    1.190923    1.177848
H       0.422955   -0.931906    1.854643
H      -1.439816    0.073897    3.113301
H      -3.691631    0.736219    1.711066
H      -3.553618    0.253173   -0.604850
H      -3.665114   -1.857978    0.457928
H      -1.402095   -2.503878    1.847753
