18

N      -0.114050   -1.141334   -0.166468
C      -0.045591   -0.000893    0.002301
C       0.054412    1.440873    0.244850
N       1.286448    1.982851   -0.316210
C       1.434374    3.409805   -0.120707
C       1.733587    4.081915    1.265999
N       2.928515    4.805481    0.703615
C       3.864492    3.743980    0.308242
C       2.734132    4.035812   -0.598890
H      -0.798291    1.931899   -0.241166
H      -0.066859    1.608621    1.330257
H       2.088038    1.481152    0.050518
H       0.573209    3.899122   -0.587284
H       0.974713    4.793796    1.595725
H       1.983602    3.409872    2.095323
H       4.838477    4.120213    0.011194
H       3.899626    2.825698    0.892400
H       2.881867    4.501066   -1.567647
