18

N      -0.006898    1.478453    0.175655
C      -0.058304    0.055688   -0.007078
C      -1.428119   -0.617345    0.020532
C      -2.253744   -0.274620   -1.186645
C      -1.167997   -1.302698   -1.323405
C       0.194980   -0.604611   -1.464684
N       0.281144    0.377865   -2.540595
C       1.317256   -1.545124   -1.452527
N       2.230605   -2.256565   -1.450249
H       0.950274    1.810047    0.235313
H      -0.445394    1.956414   -0.604927
H       0.615534   -0.418727    0.709242
H      -1.878313   -1.036879    0.911392
H      -3.260323   -0.679460   -1.174631
H      -2.160943    0.681620   -1.689141
H      -1.351018   -2.329227   -1.611960
H       1.210088    0.789961   -2.563246
H       0.140549   -0.075297   -3.439818
