18

C       1.111183    0.915703   -0.097149
N       0.169828    0.107937   -0.890809
C      -0.242356    0.619257    0.428611
C      -0.504479   -0.419584    1.466586
C       0.441420   -1.608650    1.831324
C      -0.386766   -1.410080    3.135871
O      -0.363229    0.029367    2.863782
C      -1.803015   -1.795393    2.664638
C      -1.885669   -1.118914    1.519436
H       1.972278    0.372210    0.278784
H       1.319137    1.936202   -0.407186
H      -0.242636    0.672705   -1.628112
H      -0.946889    1.449348    0.455022
H       0.343133   -2.542626    1.276858
H       1.483281   -1.300715    1.947024
H      -0.038841   -1.690441    4.128715
H      -2.503421   -2.455569    3.154511
H      -2.670680   -1.050954    0.780809
