17

C       0.081920    1.529025    0.114815
C       0.012734    0.035850   -0.025383
C       0.593695   -0.774587   -1.227231
C       0.610006   -1.830727   -0.071329
O       0.938731   -0.720510    0.838528
C      -0.909781   -1.996415    0.195734
C      -1.310090   -0.727644    0.227056
C       1.480469   -2.975285   -0.035913
C       2.194990   -3.941399   -0.029175
H       1.095087    1.890412   -0.078929
H      -0.601090    2.010469   -0.592491
H      -0.204384    1.831420    1.126990
H      -0.039184   -0.968431   -2.094957
H       1.600031   -0.453060   -1.505224
H      -1.439516   -2.929716    0.310956
H      -2.289353   -0.296621    0.377741
H       2.830963   -4.791921   -0.015623
