12

C      -0.224525   -0.991718   -0.734588
C      -0.060134    0.037170   -0.137678
C       0.145496    1.298220    0.567794
C       1.460964    1.946892    0.233567
N       2.185773    2.550077    1.136732
O       3.277841    3.038347    0.476853
N       3.234733    2.729383   -0.853109
C       2.129054    2.060440   -1.019357
H      -0.373796   -1.908299   -1.250188
H      -0.669435    1.991511    0.319162
H       0.099891    1.148413    1.651474
H       1.842173    1.677920   -1.986007
