20

C      -0.228499    1.504185   -0.091218
N       0.081322    0.085856   -0.015718
C       1.172787   -0.449103   -0.877489
C       1.863161   -1.075928    0.342207
C       2.381206   -2.479746    0.432736
C       2.182656   -0.004034    1.331244
C       0.730103   -0.421366    1.188424
C      -0.021065   -1.078599    2.265519
O       0.486926   -1.583884    3.242919
H       0.642165    2.167268    0.054112
H      -0.664107    1.728229   -1.070205
H      -0.973792    1.751482    0.671372
H       0.799283   -1.173920   -1.608707
H       1.763031    0.315095   -1.401435
H       3.389488   -2.552932    0.008094
H       2.430605   -2.803831    1.476475
H       1.736671   -3.178690   -0.110434
H       2.640833   -0.342366    2.254672
H       2.478202    0.988522    1.002119
H      -1.118849   -1.114232    2.088604
