17

O      -0.862150    0.893314    0.473205
C       0.115091    0.946342   -0.225839
C       1.247557    1.935279   -0.054380
C       1.438556    2.793044   -1.319603
C       2.647516    3.714654   -1.235967
C       2.615247    5.045205   -1.916315
N       2.575140    4.967234   -0.454799
C       3.918000    3.021115   -1.131502
N       4.908435    2.427890   -1.072587
H       0.247487    0.244704   -1.083023
H       1.045207    2.552890    0.824923
H       2.168206    1.364037    0.128922
H       1.546653    2.142267   -2.195977
H       0.549220    3.410656   -1.491036
H       3.529981    5.459557   -2.327654
H       1.708897    5.289331   -2.464312
H       1.624876    5.092267   -0.111907
