16

C      -0.252649    1.312670    0.278504
N      -0.015202   -0.102665    0.082486
C      -1.017697   -0.871328    0.122746
N      -0.900204   -2.259565   -0.054657
C       0.356630   -2.833910   -0.285174
N       0.498828   -4.084935   -0.449653
C      -2.041380   -3.070132   -0.000965
N      -3.195737   -2.583132    0.206078
H       0.104477    1.867740   -0.596458
H      -1.310931    1.565720    0.445474
H       0.329661    1.665380    1.137401
H      -2.053352   -0.569212    0.292393
H       1.136430   -2.072420   -0.297790
H       1.479975   -4.307138   -0.603301
H      -1.784365   -4.117715   -0.156859
H      -3.891488   -3.325952    0.209681
