21

C      -0.009101    1.574213    0.017570
C      -0.040835    0.050273   -0.000878
C       1.147296   -0.609367   -0.757197
O       1.959458   -0.337533    0.429695
C       0.729666   -0.624002    1.169800
C       0.534082   -2.196039    1.169572
C       1.743223   -2.772884    0.364334
C       0.974109   -2.180618   -0.860765
C      -0.306951   -2.601441   -0.078690
H       0.994780    1.943683    0.238033
H      -0.322551    1.980042   -0.950863
H      -0.696760    1.966945    0.774996
H      -1.051333   -0.289162   -0.222457
H       1.559122   -0.147194   -1.657672
H       0.730306   -0.176240    2.166579
H       0.279885   -2.595360    2.153190
H       2.741830   -2.406543    0.583541
H       1.723091   -3.864647    0.351679
H       1.151176   -2.564826   -1.867049
H      -0.446897   -3.684935   -0.117250
H      -1.266062   -2.127518   -0.282954
