14

O      -0.008132    0.020850    0.408580
C      -0.045177    1.193694    0.142914
C      -1.325680    1.996640   -0.000553
C      -1.162611    3.156779   -0.990148
O      -0.064250    3.968986   -0.615100
C       1.174751    3.321234   -0.809103
C       1.287630    1.975369   -0.092363
O       2.343930    1.502751    0.234517
H      -2.146874    1.323987   -0.265601
H      -1.548528    2.421501    0.987924
H      -1.029868    2.778782   -2.017306
H      -2.045840    3.799944   -0.981583
H       1.360312    3.131811   -1.882848
H       1.962696    3.986326   -0.447754
