17

C      -0.112988    1.524747    0.002064
C       0.065322    0.029529    0.015524
C       1.092367   -0.697176   -0.895444
C       1.030423   -1.836785    0.165516
C       0.714976   -0.723208    1.208885
N      -0.179597   -2.634304   -0.061358
C      -1.210272   -1.917871   -0.237364
O      -1.242292   -0.563217   -0.226323
H       0.846212    2.018714    0.179924
H      -0.504098    1.857696   -0.964364
H      -0.816530    1.836156    0.780434
H       0.791278   -0.936826   -1.917365
H       2.052588   -0.176765   -0.888383
H       1.892982   -2.485382    0.312184
H       1.615580   -0.206909    1.548374
H       0.078605   -0.985982    2.056465
H      -2.195125   -2.340556   -0.419171
