16

C       0.035680   -1.088573   -0.005987
C       0.002435    0.114515    0.008301
C      -0.041412    1.530854    0.026845
C       0.127632    2.435636   -1.218284
C       1.060790    2.566046   -0.034137
C       0.005955    3.512100    0.576969
C      -0.791343    3.596764   -0.769451
C      -1.960455    2.930604   -0.021553
N      -0.937926    2.341626    0.923059
H       0.065730   -2.149663   -0.013259
H       0.314523    2.032431   -2.203392
H       2.130343    2.452715    0.072375
H       0.140715    4.305016    1.308577
H      -0.871501    4.481753   -1.399778
H      -2.583804    3.643545    0.526484
H      -2.587129    2.201043   -0.542115
