16

C      -0.021978    1.491435    0.043997
C      -0.052908    0.006407   -0.041945
C      -0.072773   -0.824749   -1.081400
C       0.006887   -2.244442   -0.468053
O      -0.758763   -2.042720    0.731958
C       0.031231   -0.938497    1.194667
C       1.441391   -1.583168    1.184056
C       1.425580   -2.405893    0.140452
H       0.900666    1.838030    0.529664
H      -0.075317    1.954573   -0.945030
H      -0.854116    1.876748    0.646864
H      -0.067552   -0.598042   -2.138154
H      -0.384506   -3.071911   -1.057649
H      -0.337746   -0.549053    2.143207
H       2.246679   -1.339861    1.861880
H       2.215787   -3.017641   -0.270189
