18

O       1.932515    4.159766   -0.068003
C       1.053190    3.330325    0.007294
N       1.212017    1.972062    0.000482
C       2.399026    1.220194   -0.100922
C       2.348180   -0.112039   -0.211449
C       3.590373   -0.944934   -0.365701
C       4.769567   -0.045132   -0.736301
O       4.814626    1.084321    0.116600
C       3.722767    1.960338   -0.068734
H      -0.018995    3.595676    0.093433
H       0.358020    1.432915    0.030836
H       1.386645   -0.621405   -0.199137
H       3.810917   -1.489614    0.563062
H       3.445745   -1.706563   -1.142923
H       5.724992   -0.562544   -0.614163
H       4.683477    0.271996   -1.788827
H       3.839972    2.555194   -0.988115
H       3.744318    2.667264    0.762302
