18

C      -0.040004   -1.222632   -0.109265
C      -0.001715   -0.023363   -0.039249
C       0.010923    1.429012    0.050133
C      -0.478523    2.022171    1.401152
C       0.679781    1.598821    2.327870
C       1.802815    2.114850    1.435941
C       1.279389    3.304564    0.705766
C      -0.164438    3.512098    1.151368
N       1.395341    1.994690    0.010951
H      -0.064797   -2.281879   -0.180040
H      -0.552243    1.846983   -0.792232
H      -1.489015    1.765064    1.711089
H       0.649469    2.105257    3.297478
H       0.723025    0.519082    2.489860
H       2.851169    1.958925    1.657027
H       1.903706    4.109235    0.337364
H      -0.794636    3.960179    0.376665
H      -0.240049    4.120247    2.058285
