21

C      -0.369624    1.321135    0.243711
C       1.079488    0.918006   -0.009917
C      -0.011704   -0.100606   -0.034383
O      -0.108616   -1.110472    0.971423
C      -0.421072   -2.118247   -0.028640
C      -1.843310   -2.652864    0.105284
C      -2.726041   -1.515419   -0.445260
C      -1.901311   -0.942502   -1.617723
C      -0.438906   -1.043396   -1.155932
H      -0.645969    1.568266    1.263316
H      -0.892404    1.890129   -0.518804
H       1.542968    1.209695   -0.947308
H       1.747686    0.903031    0.844526
H       0.352857   -2.891504   -0.058239
H      -1.943916   -3.552470   -0.515706
H      -2.076500   -2.930813    1.136973
H      -3.719617   -1.853753   -0.750596
H      -2.861440   -0.750323    0.325797
H      -2.039340   -1.561499   -2.512425
H      -2.191130    0.078790   -1.883605
H       0.277084   -1.145800   -1.972785
