17

O      -0.014408    0.009120   -0.096564
C      -0.028887    1.198524    0.022196
C      -1.102955    2.301587    0.046092
C      -0.819924    2.876214    1.455174
C       0.694228    3.195956    1.249444
O       0.814943    4.536763    0.784380
C       0.144036    4.572773   -0.481752
C      -0.064253    3.100050   -0.842998
C       1.007825    2.317762    0.002617
H      -2.131515    2.123663   -0.259582
H      -1.368163    3.792380    1.686791
H      -1.014069    2.143924    2.243946
H       1.339360    3.076778    2.118498
H      -0.804298    5.120950   -0.403088
H       0.781214    5.091528   -1.206703
H      -0.109661    2.863559   -1.904785
H       2.046138    2.194314   -0.293782
