20

C      -0.054332    1.571240    0.062735
C       0.071372    0.075609    0.052901
C       0.565253   -0.767871   -1.127710
C       1.241815   -1.758380   -0.125126
C       0.739726   -0.907635    1.047858
C       1.484821   -0.681693    2.331315
C      -0.758900   -0.820472    0.949504
O      -1.369749   -0.225795    2.060896
H       0.892388    2.055866   -0.201662
H      -0.806256    1.910741   -0.662252
H      -0.351674    1.934217    1.050759
H      -0.212295   -1.181788   -1.780735
H       1.294557   -0.243659   -1.751091
H       0.895434   -2.798029   -0.147345
H       2.331492   -1.755324   -0.211489
H       2.484900   -0.273575    2.145267
H       0.943420    0.007794    2.982737
H       1.610603   -1.624899    2.877919
H      -1.327345   -1.651532    0.517761
H      -2.125448    0.283105    1.749130
