13

N       0.132043    1.405167   -0.177233
C      -0.064832    0.047133    0.027161
C      -1.197516   -0.653469   -0.113536
N      -1.159304   -2.049414    0.009628
C      -0.045882   -2.778194    0.312892
O      -0.023799   -3.984761    0.417004
C       1.219097   -1.938120    0.524621
O       2.271595   -2.400733    0.833848
O       1.114928   -0.572146    0.337978
H       0.798776    1.804107    0.472304
H      -0.724272    1.940783   -0.201770
H      -2.150667   -0.201793   -0.338385
H      -2.004469   -2.585796   -0.122348
