20

C       0.300830    1.124738   -0.640217
N      -0.018992    0.032757    0.274313
C      -1.003512    0.325194    1.311334
C      -1.354397   -0.537892    0.149699
C       1.465959    1.917564   -0.132052
C       2.834691    1.413608    0.357007
C       2.927832    2.690446    1.265425
C       1.559027    3.119080    0.721005
O       1.682747    3.213519   -0.706087
H       0.556644    0.683483   -1.612602
H      -0.546811    1.812351   -0.806818
H      -0.809895   -0.111641    2.286739
H      -1.436065    1.324276    1.336856
H      -2.022331   -0.114175   -0.598807
H      -1.420404   -1.616524    0.259880
H       2.759505    0.489552    0.932256
H       3.591133    1.305940   -0.424045
H       2.911765    2.449200    2.330893
H       3.744106    3.386771    1.059655
H       0.790648    3.726865    1.186521
