21

C      -0.595242    0.984056   -0.084037
O      -0.127650   -0.343415   -0.227008
C       0.877072   -0.485272   -1.198676
C       1.268269   -1.960834   -1.254265
C       0.200186   -2.522439   -2.208060
C      -0.028705   -1.350184   -3.151215
C       0.203160   -1.408116   -4.632435
C      -1.200269   -1.225071   -4.071238
O       0.416741   -0.165727   -2.497796
H       0.218883    1.665382    0.208742
H      -1.043380    1.355878   -1.012758
H      -1.349798    0.975018    0.705639
H       1.703225    0.207884   -0.983389
H       2.268925   -2.054144   -1.686278
H       1.263770   -2.417280   -0.263941
H       0.519515   -3.424904   -2.733597
H      -0.713126   -2.752198   -1.651114
H       0.669047   -0.542379   -5.089867
H       0.463262   -2.360486   -5.083124
H      -1.900142   -2.052312   -4.135002
H      -1.647396   -0.241985   -4.167376
