16

N      -0.016348    1.396940    0.097770
C       0.002036    0.011270    0.026489
C      -1.168057   -0.758462    0.030838
N      -1.156122   -2.086055    0.019515
C       0.038544   -2.686425    0.002140
C       0.058690   -4.192048   -0.057123
O       0.057005   -4.572368   -1.430632
N       1.216591   -2.053811    0.005278
C       1.192586   -0.726399    0.016657
H       0.811583    1.859030   -0.249262
H      -0.860649    1.836325   -0.239166
H      -2.143843   -0.272992    0.047080
H       0.961883   -4.550793    0.454883
H      -0.829257   -4.575096    0.463855
H       0.070601   -5.533841   -1.465327
H       2.154943   -0.214583    0.021267
