21

C       0.051816    1.495812   -0.076259
C      -0.064883    0.005086    0.081721
C      -1.324704   -0.728616   -0.364685
C      -1.155418   -2.165195    0.188496
C      -0.256281   -2.007702    1.418513
C      -0.760003   -2.249999    2.822632
C       0.259030   -3.178959    2.206774
C       0.568072   -0.786223    1.147826
O       1.131810   -0.757095   -0.177233
H       0.999446    1.854343    0.333443
H       0.012353    1.776854   -1.134725
H      -0.769558    2.008198    0.436012
H      -2.195168   -0.231668    0.080818
H      -1.455956   -0.708550   -1.451392
H      -2.110920   -2.641239    0.424681
H      -0.649171   -2.786425   -0.555256
H      -0.431192   -1.581253    3.612207
H      -1.777381   -2.608549    2.940118
H      -0.067931   -4.170248    1.909655
H       1.277739   -3.141549    2.578518
H       1.184268   -0.346023    1.929821
