16

O       0.315636    1.121224    0.588265
C       0.015126   -0.138308    0.082334
C      -1.482819   -0.439915   -0.127653
O      -2.119211    0.727301   -0.610310
C      -1.454120   -1.482019   -1.249555
N      -2.433154   -2.240237   -1.523301
N      -0.230550   -1.325903   -1.903710
C       0.600559   -0.392518   -1.299861
N       1.642032    0.201207   -1.708921
H       1.005263    1.481595    0.011742
H       0.410549   -0.931346    0.742108
H      -1.975374   -0.836589    0.766114
H      -3.009063    0.467708   -0.876503
H      -2.264411   -2.814476   -2.351824
H      -0.035438   -1.738774   -2.803926
H       1.909618   -0.045860   -2.661173
