13

N       0.012568    1.226169    0.014833
C      -0.019564   -0.021323    0.060763
O       1.010863   -0.955587    0.198998
C       0.079328   -2.039054   -0.017610
C      -0.908866   -2.068799    1.080832
C      -1.096323   -1.062282   -0.081199
C      -2.258301   -1.005836   -0.892204
C      -3.246094   -0.957325   -1.575960
H       0.964359    1.580986    0.118748
H       0.375634   -2.833473   -0.687820
H      -1.632990   -2.876381    1.058617
H      -0.629382   -1.706009    2.064607
H      -4.114634   -0.904560   -2.184566
