18

C       0.041363   -1.195337    0.014680
C      -0.014761   -0.000671    0.136452
C      -0.046517    1.451614    0.278033
C       1.342003    2.077076    0.095974
C       2.002829    2.221498   -1.311984
C       1.034816    3.406666   -1.603422
C       1.520459    3.611941   -0.137071
C       2.948356    3.270931   -0.656266
H       0.078355   -2.250948   -0.090924
H      -0.771936    1.866850   -0.429084
H      -0.419619    1.709408    1.278462
H       2.017386    1.662905    0.852531
H       2.282706    1.413494   -1.988456
H       1.384870    4.143513   -2.331335
H      -0.019332    3.179370   -1.769275
H       1.243171    4.417562    0.545113
H       3.664364    2.897245    0.080915
H       3.405994    4.000085   -1.329562
