17

O      -0.061400    1.426202   -0.188563
C       0.050417    0.034979    0.085040
C      -1.338734   -0.565159   -0.020515
C      -2.032587   -0.644540   -1.423271
C      -2.229906   -2.152907   -1.219565
C      -0.900307   -2.825396   -1.043310
C      -1.498642   -2.085602    0.125168
H       0.821140    1.807475   -0.175865
H       0.733445   -0.453280   -0.627228
H       0.452242   -0.143537    1.096692
H      -1.990437   -0.038287    0.682750
H      -2.963222   -0.075629   -1.459277
H      -1.418107   -0.358061   -2.283364
H      -3.122704   -2.710614   -1.474676
H      -0.931362   -3.907034   -0.957079
H      -0.021074   -2.451006   -1.562361
H      -1.730505   -2.598021    1.051677
