23

C      -0.203471    2.025966    0.072745
C      -0.071705    0.500206    0.116133
C      -1.406363   -0.260914   -0.028222
C      -1.991738   -0.144292   -1.450083
C      -3.440407   -0.621824   -1.592246
C      -1.229077   -1.748895    0.364000
O      -0.276040   -2.388130   -0.444208
C      -0.864359   -1.899117    1.824048
O       0.113781   -2.510745    2.183027
H       0.769728    2.501474    0.229173
H      -0.588204    2.382789   -0.887224
H      -0.878787    2.389084    0.856041
H       0.613111    0.156552   -0.666385
H       0.401813    0.221935    1.066617
H      -2.132886    0.169417    0.679436
H      -1.939702    0.903421   -1.764500
H      -1.344314   -0.705774   -2.133400
H      -3.548285   -1.690441   -1.380646
H      -4.108229   -0.078061   -0.914145
H      -3.801872   -0.459304   -2.612327
H      -2.210603   -2.248971    0.262811
H       0.362420   -2.785397    0.168866
H      -1.555308   -1.425244    2.552081
