12

C       0.014953    1.516522    0.094245
C       0.063041    0.031553   -0.016281
C      -0.046207   -0.774856   -1.138305
N       0.069446   -2.042854   -0.647465
N       0.237582   -2.031049    0.675542
N       0.234429   -0.785059    1.060106
C      -0.232743   -0.475038   -2.503358
N      -0.386074   -0.223338   -3.623713
H       0.943470    1.899617    0.528014
H      -0.128510    1.978062   -0.884924
H      -0.804442    1.826556    0.749640
H       0.042304   -2.918419   -1.148063
