22

C      -0.170960    1.551755   -0.261881
C       0.283891    0.087934   -0.187400
C       1.275101   -0.221892   -1.317343
C       0.891771   -0.243241    1.207288
C      -0.047682    0.112497    2.277132
N      -0.804417    0.329110    3.124845
C       1.276607   -1.743986    1.387178
C       1.981784   -2.019487    2.714924
O       0.147782   -2.580160    1.199595
H       0.679492    2.235110   -0.148600
H      -0.632024    1.756974   -1.232731
H      -0.901447    1.792180    0.515167
H      -0.590430   -0.561086   -0.307336
H       2.214952    0.327806   -1.183809
H       1.508742   -1.286673   -1.391113
H       0.850128    0.084110   -2.278021
H       1.798411    0.361687    1.346608
H       1.956138   -2.000901    0.570124
H       2.230508   -3.081527    2.782763
H       2.907236   -1.440452    2.799695
H       1.341497   -1.758789    3.564596
H      -0.449510   -2.445018    1.945879
