23

C      -0.087654    1.553030    0.086156
C       0.013934    0.026346   -0.008727
C       0.741939   -0.494325   -1.257980
C       2.227766   -0.106218   -1.277294
O       2.903187   -0.613321   -2.417655
C       2.868535   -2.025649   -2.473762
C       1.429247   -2.550193   -2.562861
O       1.393942   -3.970145   -2.517682
C       0.622725   -2.023383   -1.379991
H       0.894200    2.026955    0.182183
H      -0.572397    1.972572   -0.802471
H      -0.678783    1.850696    0.957745
H       0.513640   -0.366912    0.887362
H      -0.996958   -0.400322    0.001263
H       0.278521   -0.039311   -2.145560
H       2.357955    0.978199   -1.316133
H       2.714546   -0.474021   -0.355607
H       3.448929   -2.316207   -3.356917
H       3.349045   -2.472132   -1.586156
H       0.982552   -2.176175   -3.498341
H       1.826522   -4.306711   -3.309119
H       1.008081   -2.500331   -0.467884
H      -0.425084   -2.327501   -1.478317
