21

C       0.267474    1.590283    0.019219
C      -0.036748    0.095710   -0.005177
C       0.567003   -0.559323   -1.256431
O       0.153639   -1.888443   -1.523945
C       0.294792   -2.840089   -0.484456
C      -0.670176   -2.608334    0.715902
C       0.475027   -1.823264    1.416370
C       1.472095   -2.594321    0.500681
O       0.473526   -0.421198    1.222376
H       1.347197    1.765173   -0.024483
H      -0.205496    2.098219   -0.826142
H      -0.109209    2.029153    0.946094
H      -1.127349   -0.047699   -0.042969
H       0.246743    0.012454   -2.133296
H       1.663537   -0.485981   -1.197517
H       0.245163   -3.812600   -0.979349
H      -1.617833   -2.105108    0.517568
H      -0.869332   -3.543549    1.246794
H       0.590091   -1.959503    2.494152
H       1.782470   -3.535347    0.963385
H       2.358834   -2.063613    0.150279
