23

C       0.048584    1.572282    0.014509
C       0.065364    0.039512   -0.016255
C       0.631378   -0.521221   -1.330355
C       0.723597   -2.050955   -1.284923
C       1.731423   -2.489915   -0.214465
C       1.403357   -1.941986    1.187966
C       2.589530   -1.233143    1.874789
O       2.100617    0.058066    1.454103
C       0.789019   -0.515801    1.205512
H       1.069116    1.965361   -0.000443
H      -0.488899    1.973163   -0.850916
H      -0.440342    1.947922    0.919690
H      -0.971685   -0.320800    0.067782
H      -0.001745   -0.194769   -2.163392
H       1.630260   -0.101577   -1.509574
H      -0.268344   -2.474030   -1.072313
H       1.028045   -2.446739   -2.260097
H       1.805155   -3.582084   -0.175465
H       2.720360   -2.126673   -0.520882
H       0.868516   -2.681790    1.788377
H       2.594642   -1.322953    2.970804
H       3.594293   -1.441505    1.490090
H       0.158607   -0.365813    2.097254
