19

C      -0.270634    1.506498   -0.003645
C       0.078095    0.021323   -0.004421
C       0.881216   -0.511919   -1.200438
C       1.520721   -1.836329   -0.683259
C       1.907699   -1.487782    0.776311
C       0.911996   -0.406162    1.211530
O       0.817186    0.049559    2.321766
C       0.578420   -2.950068   -0.747289
C      -0.210006   -3.856912   -0.791866
H       0.625908    2.119984   -0.145084
H      -0.976857    1.750600   -0.802472
H      -0.716105    1.784779    0.955015
H      -0.848592   -0.568195    0.071552
H       0.276970   -0.669499   -2.095641
H       1.683043    0.192252   -1.455174
H       2.405359   -2.092290   -1.274710
H       1.902151   -2.336945    1.461500
H       2.910473   -1.044440    0.809426
H      -0.897867   -4.664796   -0.835828
