17

O       0.107790    1.400307   -0.159158
C       0.044275    0.018214    0.048725
C      -0.121721   -0.511972    1.492006
O      -1.365913   -1.173046    1.152114
C      -1.312878   -0.705058   -0.216122
C      -2.464108    0.205833   -0.559541
C      -3.822526   -0.037201   -0.032216
N      -3.013434    1.086959    0.493245
H      -0.715546    1.800587    0.148675
H       0.893551   -0.410405   -0.486669
H       0.632663   -1.225704    1.841231
H      -0.257367    0.272162    2.247830
H      -1.259055   -1.543625   -0.922524
H      -2.362469    0.690134   -1.528534
H      -4.689649    0.251994   -0.617973
H      -3.962932   -0.894094    0.619712
H      -2.636094    0.763527    1.384183
