19

C       0.313287    1.077951    0.369325
O      -0.251081   -0.062018   -0.257816
C       0.534318   -0.605448   -1.276990
C       0.401098    0.070939   -2.626120
C       1.896966   -1.201156   -0.965931
O       1.948700   -1.686626    0.373936
C       0.855658   -2.610854    0.124547
C       0.694702   -2.095759   -1.304870
O       0.302952   -2.843035   -2.393407
H       1.288667    0.842225    0.811064
H       0.425172    1.921504   -0.326446
H      -0.378690    1.373263    1.161553
H       0.682392    1.126403   -2.559162
H       1.038445   -0.406965   -3.373933
H      -0.632887    0.009126   -2.976972
H       2.829011   -0.939362   -1.455581
H       1.212793   -3.647564    0.171810
H       0.014772   -2.461300    0.806732
H       0.902318   -3.592705   -2.483958
