16

C       0.021341    1.459637    0.049391
C       0.008216   -0.031406   -0.033095
N      -0.008627   -0.703988   -1.130990
C       0.018097   -2.093517   -0.809355
C       1.200102   -2.647466   -0.060692
C       0.016512   -2.179116    0.757464
N       0.062200   -0.787815    1.133362
C      -0.768070   -3.069421    1.552632
N      -1.406336   -3.785472    2.200997
H       0.976319    1.819832    0.445575
H      -0.131277    1.875965   -0.945992
H      -0.768780    1.823095    0.716105
H      -0.564871   -2.759295   -1.435329
H       1.346350   -3.719902   -0.116681
H       2.104608   -2.052233    0.007447
H      -0.403917   -0.482918    1.974429
