17

O      -0.004383    0.066506   -0.036237
C      -0.010116    1.265764   -0.017283
C      -1.201551    2.222041    0.036287
C      -1.341555    2.697064    1.498661
C       0.016824    3.044579    2.062194
C       1.156236    2.831435    1.399196
C       1.156682    2.253879   -0.010896
C       0.614471    3.279782   -1.018756
O      -0.808660    3.315923   -0.792194
H      -2.123631    1.781916   -0.349422
H      -2.011738    3.565411    1.526327
H      -1.817657    1.911927    2.102910
H       0.044315    3.476149    3.059236
H       2.116519    3.076824    1.841994
H       2.109209    1.806949   -0.292204
H       1.012110    4.287528   -0.866759
H       0.821239    2.966491   -2.051914
