11

O      -0.497951    0.636081    0.856379
C       0.209054    0.909491   -0.069172
C       1.292879    1.970478    0.007644
O       2.406871    1.751641   -0.863348
C       1.557260    2.836612   -1.187137
C       0.759261    2.725297   -2.389754
N       0.124214    2.665400   -3.352781
C       1.590103    2.507958    1.318991
N       1.827987    2.945978    2.360169
H       0.155027    0.417188   -1.059614
H       1.965840    3.826852   -0.995815
