21

C      -0.064835    1.530471   -0.004097
C      -0.079788    0.020078    0.107453
C      -1.251769   -0.650872   -0.578841
O       1.194692   -0.622151   -0.109615
C       0.630756   -0.658572    1.206246
C       1.385436    0.040660    2.337105
C       1.763321   -1.140853    3.238746
O       0.670459   -2.044982    3.125117
C       0.262176   -2.041402    1.766258
H       0.813759    1.960529    0.479351
H      -0.055627    1.829992   -1.057775
H      -0.961357    1.960850    0.455665
H      -1.298446   -0.345604   -1.629843
H      -1.162894   -1.738473   -0.548302
H      -2.197488   -0.363051   -0.106474
H       2.246225    0.595750    1.960633
H       0.726296    0.730792    2.874258
H       2.697990   -1.611028    2.892010
H       1.875370   -0.883013    4.294433
H      -0.809250   -2.259672    1.739346
H       0.791911   -2.809200    1.181067
