18

O       0.402252   -0.073995   -1.418919
C       0.002524    0.094271   -0.063108
C      -1.378966   -0.513209    0.072991
C      -1.499958   -2.075755   -0.013241
C      -1.111290   -2.113851    1.500225
C      -1.947749   -0.812536    1.489952
O      -3.274178   -1.282909    1.197882
C      -3.021693   -2.209887    0.110473
H       1.253403    0.358115   -1.536729
H       0.727049   -0.373771    0.618606
H      -0.048749    1.162436    0.203880
H      -2.069529    0.039380   -0.572115
H      -0.990541   -2.659743   -0.777357
H      -1.495124   -2.936063    2.108946
H      -0.047615   -1.968589    1.683596
H      -1.986995   -0.091854    2.306225
H      -3.563871   -1.890860   -0.787159
H      -3.354121   -3.216069    0.391619
