21

C      -1.174359    0.386010    0.302322
C       0.251311    0.001316   -0.126099
C       0.529213    0.487140   -1.540440
C       1.677078    0.439877   -2.215320
C       3.040526   -0.007042   -1.719916
C       3.116504   -1.258718   -0.871591
C       2.905973   -1.297779    0.449841
C       2.396181   -0.153712    1.212541
C       1.252102    0.472368    0.910372
H      -1.295339    1.475343    0.328279
H      -1.913650   -0.015508   -0.398056
H      -1.404811   -0.002123    1.298921
H       0.312995   -1.094654   -0.151430
H      -0.337656    0.891465   -2.061091
H       1.666569    0.808779   -3.238890
H       3.687936   -0.145572   -2.591993
H       3.475505    0.823996   -1.147597
H       3.440160   -2.165231   -1.378012
H       3.127532   -2.213674    0.996350
H       2.976454    0.185386    2.069767
H       0.960761    1.348515    1.487712
