19

C      -0.051233    1.502474   -0.012851
C       0.198970   -0.007472   -0.041307
C       0.633029   -0.515507   -1.407433
C       0.870257   -2.041422   -1.503207
O       0.193795   -2.447797   -2.693630
C      -0.230529   -1.270091   -3.353598
O      -0.419985   -0.300599   -2.355273
C       0.752894   -0.837317   -4.367370
C       1.544849   -0.484904   -5.199536
H       0.856494    2.058523   -0.271647
H      -0.828518    1.777892   -0.730336
H      -0.371112    1.828051    0.981269
H       0.978937   -0.274577    0.683148
H      -0.708188   -0.548939    0.253054
H       1.530796    0.024117   -1.743681
H       1.936543   -2.286584   -1.562856
H       0.427611   -2.580385   -0.658024
H      -1.198399   -1.468393   -3.825214
H       2.241857   -0.174963   -5.938952
