15

N       0.142853    1.454422    0.001940
C       0.028690    0.048027   -0.019944
C       0.036953   -0.802444    1.295154
N      -1.423084   -0.474140    1.501603
C      -1.320056   -0.812253    0.037186
C      -0.311897   -1.951823    0.312465
O       0.658196   -2.027052   -0.741730
C       0.901856   -0.701792   -1.006821
O       1.627905   -0.299223   -1.863982
H       0.185027    1.837813   -0.935303
H      -0.618889    1.875678    0.521210
H       0.772056   -0.771604    2.099917
H      -1.888331   -1.236465    2.005709
H      -2.174009   -0.788643   -0.641135
H      -0.616098   -2.938503    0.653455
