11

O      -0.013828    0.180030   -0.609790
N      -0.035193    1.228787    0.005970
O       0.882537    1.752284    0.611260
C      -1.336905    1.965248    0.026997
N      -1.253263    3.276925   -0.121731
C      -2.432581    3.884089   -0.106105
C      -3.602558    3.146467    0.095023
N      -3.578573    1.825772    0.258268
N      -2.401754    1.205187    0.203275
H      -2.447172    4.961299   -0.246194
H      -4.580312    3.614388    0.132515
