17

C       0.092080    1.441423    0.098523
C      -0.078487   -0.037196   -0.231141
N      -1.391339   -0.509956    0.217706
C      -1.700849   -1.852033    0.090018
C      -2.855487   -2.521648   -0.200841
C      -2.541583   -3.916834   -0.062237
C      -1.235257   -3.990046    0.283554
O      -0.705425   -2.724366    0.384973
H       1.079471    1.791791   -0.215023
H      -0.655433    2.053121   -0.420339
H      -0.015876    1.614088    1.173060
H       0.069972   -0.204975   -1.310639
H       0.679703   -0.628832    0.287960
H      -2.148643    0.070299   -0.117831
H      -3.800297   -2.083420   -0.479464
H      -3.209973   -4.750290   -0.213554
H      -0.547018   -4.794623    0.475859
