17

C      -0.435959    1.325430   -0.607619
C       0.001796   -0.028493   -0.088747
C       1.090405   -0.768164   -0.761922
O       1.337617   -0.071769    0.454533
C      -0.991472   -0.771493    0.652940
C      -1.844529   -1.360768    1.263762
C      -2.868385   -2.085997    2.017990
C      -3.341800   -3.299887    1.349670
C      -3.738576   -4.296669    0.811271
H       0.385580    1.805114   -1.145169
H      -1.291630    1.220095   -1.281308
H      -0.734665    1.971711    0.222852
H       1.117963   -1.854194   -0.697036
H       1.544138   -0.337193   -1.654186
H      -2.470108   -2.347965    3.008052
H      -3.721581   -1.420956    2.210294
H      -4.086124   -5.178265    0.332214
