23

C       0.157097    1.562569   -0.076919
C       0.110353    0.034454    0.026282
C       0.684330   -0.543405    1.334507
C      -0.120876   -0.105156    2.566517
C       0.766503   -2.070035    1.259549
C       1.743024   -2.698434    0.211290
C       2.268601   -3.613132    1.327535
O       2.931866   -4.608957    1.340639
C       1.522004   -2.816823    2.407821
H       1.180372    1.935966    0.044354
H      -0.203351    1.897938   -1.054337
H      -0.464333    2.044606    0.683587
H      -0.927244   -0.309749   -0.086914
H       0.663465   -0.391974   -0.819636
H       1.713118   -0.164365    1.445932
H      -0.124473    0.981923    2.683931
H      -1.163647   -0.435778    2.487023
H       0.293206   -0.532450    3.485111
H      -0.240581   -2.484256    1.136999
H       1.325573   -3.197762   -0.666421
H       2.515616   -1.995778   -0.123575
H       2.205602   -2.163414    2.963471
H       0.943208   -3.402079    3.126583
