14

N      -0.016360    1.413869    0.128164
C       0.001901    0.033266    0.043021
C      -1.169707   -0.737387    0.033949
N      -1.161553   -2.062189    0.010544
C       0.038283   -2.663889   -0.005073
N       1.221414   -2.029789   -0.003793
C       1.193831   -0.705251    0.019732
C       0.057597   -4.095020   -0.028589
C       0.073832   -5.297451   -0.048110
H       0.814100    1.887940   -0.194356
H      -0.863248    1.865126   -0.184205
H      -2.145463   -0.252061    0.046371
H       2.156112   -0.193577    0.020495
H       0.088230   -6.359057   -0.064935
