15

O      -0.546859    0.544989   -0.560410
C       0.249232   -0.363861    0.122125
C       1.637820   -0.441013   -0.514783
O       1.946813    0.335672   -1.383772
C       0.409928    0.041903    1.615084
O       0.409846    1.195118    1.945579
C       0.500192   -1.085754    2.661003
C       1.227433   -2.274237    2.241638
C       1.838479   -3.248613    1.890916
H       0.056366    1.056131   -1.123614
H      -0.189674   -1.372988    0.088967
H       2.323052   -1.219202   -0.136684
H       0.931342   -0.650864    3.567616
H      -0.538572   -1.354648    2.904005
H       2.373169   -4.117794    1.595084
