13

O       0.207055    1.285444    0.449316
C      -0.004844   -0.033686    0.044786
C      -1.490848   -0.406544   -0.146953
N      -1.431668   -1.412826   -1.205044
C      -0.302479   -1.415863   -1.977654
O      -0.067148   -2.084976   -2.954279
C       0.594573   -0.349495   -1.317558
O       1.542122    0.210713   -1.799313
H       0.978895    1.598883   -0.044610
H       0.438494   -0.754027    0.756432
H      -1.948281   -0.814997    0.757359
H      -2.049182    0.487063   -0.450193
H      -2.221642   -1.988328   -1.454026
