12

O       0.024648    1.352856    0.007593
C      -0.011316    0.013857    0.000901
C      -1.195521   -0.666286    0.003509
O      -2.405624   -0.065702    0.012722
C      -1.178671   -2.103401   -0.003770
O      -2.159764   -2.808218   -0.002873
O       0.091991   -2.689412   -0.013561
C       1.184321   -1.915490   -0.015235
N       1.198308   -0.635708   -0.008667
H       0.957273    1.607564    0.004125
H      -3.054236   -0.787988    0.012528
H       2.098177   -2.498343   -0.023024
