18

C      -0.148320    1.534636    0.044114
C       0.064948    0.039368   -0.002553
C       0.094161   -0.600097   -1.191481
C       0.088288   -2.057683   -1.487235
O      -0.444356   -2.478775   -2.504104
N       0.676111   -2.905219   -0.585688
C       1.569530   -2.494806    0.486737
C       0.842740   -1.735520    1.567592
C       0.174999   -0.606391    1.308452
H       0.670010    2.031600    0.578545
H      -0.220371    1.965121   -0.956663
H      -1.070028    1.774943    0.588429
H      -0.053282   -0.018051   -2.096249
H       0.644744   -3.876991   -0.854713
H       2.030045   -3.396684    0.894738
H       2.382606   -1.871183    0.083857
H       0.873363   -2.124782    2.580797
H      -0.301979   -0.079158    2.132204
