19

C      -0.015004    1.475030    0.004027
C       0.010311    0.019261    0.003275
C       0.038357   -1.184997   -0.009118
C       0.051958   -2.640339    0.009137
C       0.743137   -3.195590    1.274881
O       0.658240   -4.610735    1.302035
C      -0.675911   -5.041559    1.249055
O      -1.326391   -4.644838    0.070981
C      -1.374854   -3.231988   -0.038946
H       0.942630    1.889378   -0.329907
H      -0.793004    1.859070   -0.664972
H      -0.215661    1.869879    1.006042
H       0.598138   -3.026548   -0.860636
H       1.803946   -2.937290    1.291067
H       0.265359   -2.762622    2.169102
H      -0.661773   -6.132831    1.256490
H      -1.228073   -4.656035    2.128538
H      -1.974408   -2.801003    0.779672
H      -1.866716   -3.000466   -0.985929
