23

C      -0.058097    1.532897   -0.327100
C      -0.003301    0.053083    0.060190
C      -1.374680   -0.628363    0.017852
C      -1.344789   -2.091833    0.471486
O      -0.873730   -2.239095    1.810216
C      -2.712629   -2.733905    0.335261
O      -3.198893   -2.971945   -0.988485
C      -2.962886   -4.104438   -0.136389
C      -1.901647   -5.087429   -0.556739
H       0.935390    1.990717   -0.291693
H      -0.449927    1.664953   -1.341846
H      -0.707984    2.096904    0.351655
H       0.680602   -0.478725   -0.614362
H       0.417669   -0.057335    1.065666
H      -2.084696   -0.076767    0.654656
H      -1.787783   -0.594345   -0.997782
H      -0.622512   -2.638172   -0.142846
H      -1.426219   -1.689110    2.377375
H      -3.459362   -2.296214    1.007139
H      -3.885667   -4.569848    0.217571
H      -1.004931   -4.587740   -0.927573
H      -1.621484   -5.726128    0.287566
H      -2.282701   -5.732485   -1.355296
