25

C      -1.770407   -0.330426   -0.244695
C      -0.295334   -0.007642    0.019800
C       0.687980   -0.580903   -1.005924
C       0.450270   -0.033698   -2.410700
O       0.579196    1.373017   -2.389390
C       0.399896    1.962810   -3.653002
C       2.198006   -0.488833   -0.614197
C       2.383065   -1.975682   -1.020550
C       0.838689   -2.137047   -1.046919
H      -2.132842    0.144749   -1.161484
H      -1.936192   -1.409632   -0.339468
H      -2.398060    0.028026    0.577177
H      -0.160138    1.078929    0.062056
H      -0.016192   -0.396401    1.007492
H       1.180017   -0.469970   -3.114964
H      -0.551479   -0.321240   -2.773232
H       0.517306    3.042744   -3.532400
H       1.144539    1.603918   -4.381746
H      -0.602360    1.758479   -4.062942
H       2.787216    0.261079   -1.146871
H       2.328872   -0.330139    0.460112
H       2.834314   -2.090341   -2.009585
H       2.932207   -2.613833   -0.324452
H       0.450054   -2.603582   -0.136837
H       0.404391   -2.656019   -1.907216
