19

C      -0.020970    1.478249    0.074633
C      -0.010078    0.022658    0.033582
C      -0.008487   -1.182025   -0.003857
C       0.021458   -2.653782   -0.080297
C      -1.402109   -3.223188    0.049057
N       0.602158   -3.151633   -1.339145
C       0.923238   -3.166682    1.083609
C       0.998394   -4.623780    1.164621
N       1.055203   -5.773589    1.262696
H       0.628838    1.857869    0.870630
H       0.329701    1.905318   -0.871327
H      -1.030119    1.862617    0.258515
H      -2.033547   -2.838493   -0.756889
H      -1.372691   -4.313550   -0.014538
H      -1.853439   -2.927212    0.999328
H      -0.011276   -2.901003   -2.109743
H       1.483422   -2.676952   -1.518592
H       1.934814   -2.766818    0.955823
H       0.545930   -2.776456    2.033882
