17

O       0.041340    1.444379    0.056759
C       0.003471    0.046232   -0.052479
C      -1.410651   -0.563147   -0.010667
C      -2.406088    0.170611   -0.937916
C      -1.796009   -0.547754   -2.180341
C      -1.004760   -1.502907   -1.202060
C       0.294961   -0.635510   -1.430001
C      -0.446690    0.058415   -2.575321
O      -0.075055    0.698642   -3.517399
H       0.943328    1.746824   -0.092361
H       0.632971   -0.439968    0.707297
H      -1.773991   -0.897075    0.960646
H      -3.425281   -0.184723   -0.767313
H      -2.396336    1.262660   -0.925458
H      -2.464540   -0.857596   -2.983674
H      -1.034875   -2.587399   -1.222757
H       1.303983   -1.002166   -1.620056
