16

N      -0.008568    1.252472    0.330028
C       0.124843    0.018291    0.024043
C      -1.065711   -0.821669    0.034514
N      -1.987371   -1.518302    0.041143
N       1.250683   -0.655289   -0.386188
C       2.650375   -0.265859   -0.101382
C       2.993529   -1.752917    0.066949
C       2.113163   -2.375589    1.122388
C       1.538742   -2.081747   -0.234014
H       0.888583    1.739257    0.284739
H       3.125263    0.213778   -0.962277
H       2.773021    0.367391    0.786043
H       3.883949   -2.227809   -0.318254
H       2.307580   -3.424999    1.318886
H       1.792382   -1.802702    1.988453
H       1.093057   -2.813269   -0.895144
