19

C       0.010725    1.440322    0.060077
C       0.008446   -0.050524   -0.048640
C       0.858064   -1.017340   -0.932267
C      -0.293892   -2.035313   -0.913674
C       0.772362   -2.084605    0.151543
O       1.592809   -3.141385    0.446317
C      -0.067140   -1.110752    1.051241
C      -1.140217   -1.058594   -0.037630
C      -2.618039   -0.870003    0.080043
H       0.989423    1.817484    0.380698
H      -0.231442    1.915231   -0.898237
H      -0.728493    1.778886    0.794402
H       1.599622   -0.851004   -1.703234
H      -0.559391   -2.772166   -1.660162
H       2.437639   -2.793697    0.755560
H      -0.173910   -0.983495    2.121919
H      -2.854367   -0.085417    0.807335
H      -3.065232   -0.580409   -0.878510
H      -3.112621   -1.789598    0.414778
