19

C      -0.349385    1.484108    0.116053
C       0.068932    0.041393   -0.020716
C       0.113745   -0.571283   -1.210625
C       0.448730   -2.031888   -1.448824
C      -0.538724   -2.916343   -0.712495
C      -0.733038   -2.900412    0.609283
C      -0.006473   -2.047916    1.573722
O       1.350481   -1.688176    1.294754
C       0.388711   -0.633662    1.266127
H       0.447879    2.091167    0.563569
H      -0.603234    1.917780   -0.854131
H      -1.224903    1.585508    0.770624
H      -0.161884    0.009690   -2.087813
H       0.398132   -2.242401   -2.520057
H       1.469482   -2.252069   -1.125328
H      -1.158469   -3.574739   -1.315630
H      -1.498191   -3.538297    1.043696
H      -0.182295   -2.278613    2.624524
H       0.462787    0.037145    2.123719
