22

C      -0.302783    1.586516   -0.434807
C       0.023771    0.195988    0.105998
N      -1.200162   -0.591214    0.225483
C      -1.589334   -1.436101   -0.898252
C      -1.152111   -2.045333    0.398177
C       0.167955   -2.793778    0.464195
C      -2.210558   -2.577738    1.361329
C      -2.714494   -3.947914    0.963259
O      -2.716136   -4.920017    1.674292
H       0.601815    2.199398   -0.495408
H      -0.736036    1.522140   -1.438395
H      -1.025482    2.090386    0.212655
H       0.779152   -0.278029   -0.541792
H       0.466316    0.279386    1.105855
H      -2.638238   -1.404926   -1.185085
H      -0.897447   -1.519404   -1.736591
H       0.877429   -2.460742   -0.295294
H       0.635409   -2.672235    1.448187
H       0.003961   -3.866379    0.315968
H      -1.827597   -2.628899    2.385765
H      -3.060664   -1.884416    1.345320
H      -3.101937   -4.004751   -0.081196
