14

O      -0.392226    0.360470    0.291451
C       0.088378    1.458204    0.187685
C       1.509873    1.730639   -0.275954
C       1.528448    2.745257   -1.396137
O       1.218752    4.086653   -1.055820
C       2.542455    3.834181   -1.517021
C       3.664671    3.966856   -0.535491
O       3.539184    3.921057    0.662240
H      -0.490000    2.373144    0.442117
H       2.065029    2.137158    0.577373
H       1.963736    0.787533   -0.593373
H       1.087678    2.412672   -2.337984
H       2.762780    4.206431   -2.518179
H       4.660907    4.097314   -1.012348
