17

C       0.108940    1.541206    0.048018
C       0.009800    0.020934   -0.007152
N       0.751683   -0.582123    1.082935
C       0.826910   -1.919211    1.264542
N       0.251365   -2.768042    0.491327
C       1.664949   -2.285611    2.479541
O       2.186033   -1.438727    3.175775
C       1.806402   -3.701184    2.759333
C       1.951779   -4.865066    3.030800
H       1.149361    1.873274   -0.034034
H      -0.452656    1.987511   -0.776568
H      -0.301877    1.930913    0.985488
H      -1.037779   -0.302838    0.044887
H       0.395396   -0.359803   -0.961755
H       1.242071   -0.009071    1.751170
H       0.439564   -3.716762    0.812098
H       2.081364   -5.892640    3.272246
