19

C       0.380804    1.697146   -0.000560
C       0.011517    0.208614   -0.079757
N       0.523122   -0.441730   -1.295682
C      -0.427645   -1.368500   -1.899887
C       1.795750   -1.088665   -0.912381
C       1.622775   -1.569622    0.538601
C       0.627990   -0.558049    1.111175
O       0.374530   -0.366803    2.271926
H       1.463777    1.839377   -0.072914
H      -0.086363    2.244521   -0.822912
H       0.043458    2.115709    0.951709
H      -1.078352    0.112875   -0.026035
H      -1.333887   -0.825968   -2.185356
H       0.005418   -1.791734   -2.811395
H      -0.731640   -2.208635   -1.247315
H       2.034869   -1.890484   -1.613871
H       2.606780   -0.352577   -0.970755
H       1.159289   -2.562909    0.582795
H       2.536376   -1.608275    1.135686
