23

C      -0.438887    1.165264    0.066820
C       0.361894   -0.132384   -0.066403
C       0.702688   -0.746002    1.284119
O       1.449485   -1.932555    1.069291
C       1.790503   -2.588273    2.249879
C       0.844098   -3.503903    2.974766
C      -0.065882   -4.232813    1.976997
C       1.192341   -4.773724    1.228238
C       2.095707   -4.043862    2.230774
H       0.118631    1.922852    0.628776
H      -0.671580    1.586417   -0.915444
H      -1.387377    0.997821    0.589156
H      -0.201539   -0.868543   -0.651382
H       1.295124    0.050270   -0.611406
H       1.290086   -0.034951    1.890293
H      -0.214389   -0.971368    1.851886
H       2.430320   -1.998878    2.910943
H       0.662849   -3.413014    4.039930
H      -0.644632   -5.032382    2.443821
H      -0.744525   -3.599285    1.398693
H       1.279511   -5.859759    1.299257
H       1.308544   -4.472073    0.184650
H       3.024398   -4.432549    2.632861
