15

C      -0.125812    1.517438    0.114937
C       0.039974    0.037108    0.082511
O      -1.175399   -0.771242   -0.016047
C      -0.666395   -1.660050    0.929914
O      -1.231309   -2.564341    1.447068
C       0.668819   -0.967099    1.008494
C       1.198000   -0.757780   -0.439706
C       1.098492   -1.803665   -1.501401
O       1.973593   -1.989162   -2.309241
H       0.836943    2.002604    0.295209
H      -0.517863    1.878704   -0.840885
H      -0.822902    1.806653    0.906350
H       1.315024   -0.873407    1.868862
H       2.142558   -0.220112   -0.459313
H       0.165808   -2.401129   -1.504767
