13

N       0.007029    1.422376    0.153596
C       0.002186    0.031941    0.038233
C      -1.092693   -0.810958    0.018998
N      -0.584753   -2.078490   -0.023702
N       0.735555   -2.134583   -0.037978
C       1.128391   -0.847556    0.003724
C       2.542109   -0.472825    0.017306
O       3.481500   -1.232787   -0.026314
H       0.795203    1.869580   -0.292511
H      -0.852887    1.857858   -0.149856
H      -2.152861   -0.617727    0.035324
H      -1.107373   -2.939147   -0.047891
H       2.709239    0.628659    0.078669
