21

C      -0.255568    1.364608    0.141624
O       0.271666    0.090368   -0.156195
C       0.780705   -0.575353    0.966919
C      -0.170574   -1.307352    1.966898
C      -0.992395   -2.189375    1.006346
C       0.216101   -3.018726    0.521224
C       0.654186   -3.715327    1.836986
C       1.047018   -2.291560    2.256025
C       1.379210   -1.958127    0.759085
H       0.503986    2.019729    0.596748
H      -0.586751    1.809890   -0.799617
H      -1.114148    1.307313    0.827145
H       1.491629    0.070091    1.507648
H      -0.684500   -0.778370    2.768660
H      -1.745591   -2.805378    1.505484
H      -1.469139   -1.603097    0.218608
H       0.125921   -3.565342   -0.416295
H      -0.103601   -4.263841    2.406649
H       1.543273   -4.340079    1.708807
H       1.709161   -2.055280    3.087630
H       2.347656   -2.141207    0.296251
