21

C      -0.029995    1.523773    0.045781
C       0.006333    0.021959   -0.014495
C      -0.036617   -0.646331   -1.172803
C      -0.043796   -2.125541   -1.264004
C      -0.417013   -2.784444   -2.526117
O       0.955796   -2.679478   -2.163235
C      -0.224209   -2.860315    0.050376
C       0.553201   -2.156132    1.167415
C       0.088456   -0.701469    1.311942
H       0.876329    1.921198    0.520423
H      -0.120039    1.969140   -0.948395
H      -0.875367    1.871844    0.653854
H      -0.061642   -0.105098   -2.115703
H      -0.837574   -3.790447   -2.497863
H      -0.726486   -2.182917   -3.381323
H      -1.292959   -2.879603    0.304173
H       0.103839   -3.896345   -0.074770
H       0.433083   -2.689214    2.116051
H       1.621977   -2.172311    0.922487
H       0.763426   -0.153116    1.981447
H      -0.897264   -0.666034    1.801825
