20

C       0.263115    1.469305    0.304737
N       0.019760    0.038922    0.297727
C       0.914455   -0.867913    0.767513
O       2.001077   -0.532877    1.235216
C       0.490128   -2.320247    0.679725
C       1.599308   -3.226640    0.050798
C       2.053012   -3.648959    1.483236
O       3.198697   -2.999603    1.955477
C       0.703711   -3.084428    2.028006
H       0.247195    1.878593   -0.711159
H      -0.485254    1.995253    0.907342
H       1.249717    1.629712    0.739658
H      -0.851622   -0.300873   -0.072945
H      -0.504613   -2.414969    0.235987
H       1.163732   -4.051229   -0.519460
H       2.361472   -2.729333   -0.552572
H       2.215765   -4.719378    1.633956
H       3.050286   -2.046606    1.819548
H       0.782591   -2.478650    2.933034
H      -0.055410   -3.857651    2.171996
