13

O       0.006271   -0.034043   -0.377892
C       0.045750    1.098490    0.033934
C       1.278165    1.923410    0.071212
C       1.164099    3.412218   -0.185920
C       1.480636    2.943694    1.207013
C       0.522633    3.084327    2.266489
C      -0.259781    3.218530    3.169716
H      -0.864613    1.612246    0.413568
H       2.168053    1.412433   -0.278288
H       1.952228    3.880777   -0.763034
H       0.170388    3.811571   -0.356456
H       2.516077    3.040266    1.519976
H      -0.953531    3.330848    3.965823
