18

C      -0.054020    1.483171    0.004625
C       0.026635   -0.013098   -0.018717
C       0.907634   -0.890456   -0.910510
C       0.032487   -2.084709   -0.442103
C       0.393885   -2.246145    1.056724
C      -0.263612   -0.876364    1.250465
C      -0.676609   -0.278170    2.472960
N      -1.006257    0.205030    3.472962
C      -1.077684   -1.033441   -0.035102
H       0.886986    1.922150    0.353999
H      -0.256297    1.873835   -0.998334
H      -0.848680    1.830781    0.671259
H       0.736100   -0.649537   -1.963721
H       1.984200   -0.941088   -0.712625
H      -0.116393   -2.955533   -1.074581
H      -0.194964   -3.028215    1.541789
H       1.451613   -2.358409    1.316295
H      -2.145172   -0.958977   -0.184040
