17

C      -0.062141    1.506799    0.161523
C       0.014028    0.028730    0.013945
C       0.082849   -0.778981   -1.048385
C       0.151892   -2.163264   -0.382811
C      -1.006507   -2.054192    0.674900
C       0.034528   -1.007152    1.166125
O       1.085788   -1.931695    0.727086
C       0.394468   -3.407074   -1.180889
O      -0.032554   -3.574586   -2.294824
H       0.789524    1.891905    0.736290
H      -0.069147    2.005005   -0.811456
H      -0.967281    1.808440    0.703872
H       0.099681   -0.578980   -2.108703
H      -1.984289   -1.717773    0.327434
H      -1.069881   -2.927746    1.328508
H       0.124856   -0.676724    2.200659
H       0.987384   -4.180840   -0.646370
