19

C       0.029105    1.507315    0.078677
C       0.061177    0.017347   -0.019608
C      -0.090526   -0.757302   -1.101297
C      -0.062102   -2.194330   -0.704306
C       0.541550   -2.290064    0.680511
C       0.092416   -0.885150    1.205656
C      -1.356814   -1.492295    1.383184
C      -0.902946   -2.663017    0.516684
O      -1.432859   -3.939317    0.559572
H       0.929265    1.892872    0.575025
H      -0.041518    1.974612   -0.907510
H      -0.824519    1.853221    0.677171
H      -0.256450   -0.413021   -2.115291
H       0.144195   -2.986090   -1.415803
H       1.407576   -2.875256    0.963697
H       0.554493   -0.475591    2.103692
H      -1.510976   -1.840328    2.407461
H      -2.204940   -0.876413    1.063136
H      -2.176960   -3.979407   -0.051390
