16

C      -0.019721    1.493733    0.099658
C       1.378580    2.143848   -0.060728
C       2.157284    1.359525   -1.058744
C       1.964932    0.034633   -1.325332
C       2.994849   -0.249576   -2.262766
N       3.729535    0.803562   -2.532508
O       3.191554    1.841046   -1.750512
C       0.903209   -0.704332   -0.657923
C      -0.011363   -0.022338    0.045078
H      -0.472266    1.839290    1.033863
H      -0.676762    1.859350   -0.704582
H       1.288287    3.193759   -0.352532
H       1.917833    2.128391    0.897733
H       3.226988   -1.182284   -2.758503
H       0.869676   -1.786019   -0.732766
H      -0.821030   -0.543931    0.545240
