20

C       0.354114    1.526775   -0.221962
C       0.002365    0.064800    0.039698
O      -1.398335   -0.105437    0.158062
C       0.753129   -0.937218   -0.897683
C       1.751904   -1.238986    0.257882
C       0.767818   -0.561514    1.217790
C       0.985997   -0.005443    2.592719
C       0.103755   -1.216352    2.391134
H       1.437226    1.672926   -0.273345
H      -0.069970    1.861956   -1.177643
H      -0.040933    2.165723    0.574019
H      -1.825097    0.417079   -0.528996
H       0.110969   -1.792417   -1.118648
H       1.163910   -0.539129   -1.829557
H       1.976458   -2.291360    0.448288
H       2.696829   -0.695973    0.154003
H       1.960402   -0.145969    3.050459
H       0.506241    0.934399    2.848750
H      -0.968071   -1.087356    2.488792
H       0.478673   -2.183589    2.711624
