11

C      -0.032396    1.454838   -0.034501
C      -0.062203   -0.029163    0.025353
N      -1.028016   -0.832194   -0.316044
C      -0.477936   -2.060284   -0.040118
O      -1.139941   -3.197634   -0.245789
N       0.739202   -2.049035    0.438488
O       1.018811   -0.665488    0.481671
H       0.782887    1.796232   -0.679241
H      -0.981175    1.819969   -0.426668
H       0.135040    1.875416    0.961512
H      -2.006442   -2.960558   -0.598307
