16

C      -0.042014    1.577874    0.043710
C       0.057917    0.080345   -0.002277
C      -0.838177   -0.848317    0.815443
C       0.630006   -0.970203    0.999636
C       1.219122   -1.820450   -0.139545
C       0.758664   -3.189466   -0.283467
N       0.358611   -4.267889   -0.404550
C       0.661471   -0.703529   -1.119907
O       0.879608   -0.481360   -2.271258
H       0.891752    2.046691   -0.280982
H      -0.840415    1.931729   -0.616395
H      -0.268012    1.924178    1.056557
H      -1.377408   -0.330145    1.601788
H      -1.400714   -1.647996    0.343082
H       1.142888   -0.766442    1.929760
H       2.311846   -1.782958   -0.185395
