18

C      -0.128009    1.364138   -0.008989
O      -0.027630   -0.042301   -0.025206
C       0.714186   -0.532255   -1.119404
C       0.675181   -2.060344   -1.046539
N      -0.665754   -2.582731   -1.174099
C      -0.836867   -3.395665   -2.275353
O      -1.871504   -3.905207   -2.649161
C       0.527926   -3.492435   -2.885864
C       1.382170   -2.735047   -2.197269
H       0.861574    1.840905    0.065140
H      -0.628363    1.746458   -0.911830
H      -0.719158    1.638129    0.867697
H       0.278523   -0.196194   -2.074057
H       1.758183   -0.178119   -1.076876
H       1.124923   -2.355993   -0.086127
H      -1.437800   -2.224046   -0.638033
H       0.722525   -4.100192   -3.757970
H       2.438455   -2.591172   -2.386021
