21

C      -0.210101    1.445589    0.064568
C      -0.117787   -0.006080    0.010620
C      -0.049550   -1.207450   -0.039177
C       0.042391   -2.665182   -0.099078
C       0.789167   -3.285031    1.114417
C      -0.060554   -4.517146    1.470653
C       0.061444   -4.984493    2.918668
C      -1.452649   -4.018959    1.068881
O      -1.262371   -3.276161   -0.125612
H       0.280663    1.846761    0.958297
H       0.260972    1.908199   -0.809779
H      -1.255914    1.771575    0.086929
H       0.535511   -2.950768   -1.037627
H       1.827090   -3.525114    0.873011
H       0.793556   -2.576677    1.948644
H       0.208456   -5.340981    0.797297
H      -0.209528   -4.181741    3.613913
H      -0.596357   -5.837145    3.118219
H       1.084831   -5.295577    3.151180
H      -2.164163   -4.821864    0.852732
H      -1.879126   -3.387063    1.866833
