17

C       0.020825    1.699170    0.048212
C      -0.037173    0.182704    0.048474
C       0.966080   -0.697279   -0.772681
C       2.074934   -0.369568    0.275776
C       0.771412   -0.689210    1.066910
N       0.527336   -1.834967    0.112105
C       1.113125   -3.074638    0.151237
O       1.577579   -3.656494   -0.804699
H       1.030307    2.103283    0.151224
H      -0.398877    2.090336   -0.884636
H      -0.582999    2.100283    0.869177
H      -1.065475   -0.172304   -0.057017
H       1.055315   -0.819491   -1.850282
H       2.876245   -1.105368    0.356414
H       2.461166    0.649657    0.313161
H       0.624564   -0.798886    2.142104
H       1.025365   -3.535983    1.157114
