25

C      -0.154911    1.418797    0.083795
O       0.103006    0.039798   -0.020887
C       0.684629   -0.553315    1.136707
C      -0.351178   -0.763911    2.245011
C       1.317287   -1.871177    0.686601
C       2.437161   -1.695849   -0.343717
C       3.039666   -3.026439   -0.802638
C       4.149753   -2.851602   -1.830004
O       4.636922   -4.139976   -2.177902
H       0.753152    1.984428    0.347353
H      -0.505624    1.756376   -0.895147
H      -0.930797    1.653215    0.827444
H       1.481194    0.113608    1.512869
H      -1.150525   -1.425176    1.895492
H       0.115573   -1.219043    3.124366
H      -0.802895    0.180272    2.562558
H       1.702505   -2.392197    1.572145
H       0.524958   -2.505696    0.268372
H       2.037916   -1.146839   -1.203636
H       3.227875   -1.064452    0.086335
H       3.446123   -3.577529    0.054894
H       2.260531   -3.663298   -1.239600
H       3.757108   -2.322013   -2.713733
H       4.952177   -2.224219   -1.407091
H       5.332299   -4.030946   -2.832833
