14

O      -0.120819    1.329748   -0.098259
N       0.021106   -0.055132   -0.085300
C      -1.106176   -0.652916   -0.004027
C      -2.453311   -0.090906    0.111886
C      -3.393806   -1.058134    0.090372
C      -2.746447   -2.372074   -0.095713
O      -3.250486   -3.438854   -0.364062
C      -1.221976   -2.162678    0.025526
O      -0.521583   -2.823820   -0.994744
H       0.791572    1.630916   -0.171191
H      -2.628090    0.972720    0.199529
H      -4.466594   -0.924855    0.142937
H      -0.915295   -2.522839    1.024279
H      -1.017919   -3.636565   -1.167082
