13

N      -0.068905    1.486242    0.029716
C      -0.026899    0.028897   -0.008044
C       0.712934   -0.502512    1.261938
C       0.093385   -0.051927    2.503812
N      -0.374158    0.282816    3.504628
C      -1.411611   -0.485225   -0.035656
N      -2.490064   -0.894202   -0.065946
C       0.692593   -0.506378   -1.195666
N       1.300954   -0.858954   -2.112306
H       0.870924    1.864747   -0.045835
H      -0.615299    1.851515   -0.744032
H       0.740079   -1.595516    1.235491
H       1.748781   -0.149643    1.220489
