22

C       0.185199    1.509325    0.074017
C      -0.019187    0.028871   -0.056694
C      -0.950641   -0.753925    0.778426
N       0.495802   -0.983106    0.965183
C       0.968271   -1.862077   -0.181958
C       2.491275   -1.906366   -0.122043
C       0.374859   -3.263305   -0.226512
C       0.445980   -0.817144   -1.232542
O      -0.600517   -1.173610   -2.112382
H       1.207133    1.798728   -0.194285
H      -0.502772    2.053174   -0.583806
H       0.000639    1.834942    1.101781
H      -1.397509   -0.238039    1.623568
H      -1.579764   -1.518951    0.336774
H       2.824596   -2.472765    0.753168
H       2.903773   -2.380505   -1.019797
H       2.907289   -0.897494   -0.040775
H      -0.695886   -3.259986   -0.437495
H       0.859522   -3.858788   -1.008349
H       0.542165   -3.769662    0.730180
H       1.276017   -0.350233   -1.779778
H      -0.224190   -1.675485   -2.842623
