16

O      -0.178051    1.347587    0.071838
C      -0.001186   -0.011425    0.028902
C      -0.207353   -0.843540   -1.250886
C       0.486654   -2.187286   -1.048054
C       0.029735   -2.070418    0.431913
C      -1.085094   -1.046084   -0.026375
C       0.834411   -0.854082    1.007089
C       2.289716   -0.845591    0.913014
N       3.441685   -0.823339    0.811039
H       0.527718    1.768519   -0.432896
H      -0.476581   -0.340595   -2.170919
H      -0.046416   -2.992183   -1.560807
H       1.560875   -2.270417   -1.241641
H      -0.119085   -2.945508    1.058289
H      -2.150568   -0.984126    0.133562
H       0.525815   -0.639535    2.033719
