19

C      -0.035810    1.490792   -0.171751
N       0.010572    0.043518    0.020800
C      -0.642355   -0.566876    1.268428
C      -2.122521   -0.521463    1.498188
C       0.255319   -1.806940    0.983656
C       1.146075   -0.542387    0.848040
C       0.510991   -0.015036    2.167490
C       2.524963   -0.460164    0.431441
N       3.632209   -0.382011    0.107717
H       0.723564    1.761739   -0.911628
H      -1.013644    1.743561   -0.593347
H       0.121149    2.115787    0.719772
H      -2.654172   -0.968640    0.652624
H      -2.387382   -1.075049    2.404501
H      -2.472416    0.509048    1.619077
H       0.474289   -2.468822    1.822297
H       0.055079   -2.328519    0.048255
H       0.552661    1.059069    2.342496
H       0.744441   -0.568601    3.080191
