14

N      -0.144207    1.327524    0.022400
C       0.086796   -0.000836    0.009148
O       1.157462   -0.559628    0.011480
N      -1.127676   -0.764160   -0.008706
C      -1.234448   -2.125847   -0.034550
C      -2.591972   -2.344775   -0.034632
N      -3.320845   -3.522251   -0.117723
N      -3.230599   -1.132091   -0.009872
N      -2.343512   -0.183672    0.001643
H       0.647150    1.945516    0.036220
H      -1.088026    1.679523    0.019234
H      -0.367092   -2.759816   -0.052167
H      -2.911496   -4.303093    0.375030
H      -4.284681   -3.382383    0.155161
