17

N      -0.002739    1.099181    0.963360
C      -0.013181    0.160804    0.103621
O       1.136861   -0.144082   -0.589402
C       1.258076   -1.421383   -1.212731
C       0.483279   -1.473125   -2.504668
C      -0.327212   -2.686746   -2.849292
N      -0.963320   -1.446582   -2.418616
C      -1.622759   -1.318957   -1.201251
C      -1.251511   -0.591057   -0.133164
H       0.934809    1.501246    1.022286
H       2.326957   -1.552126   -1.401489
H       0.930669   -2.212577   -0.529565
H       0.890440   -0.871542   -3.314613
H      -0.481955   -2.960127   -3.888637
H      -0.305966   -3.517700   -2.147427
H      -2.594919   -1.805715   -1.195023
H      -1.972252   -0.469392    0.666083
