19

C      -0.196661    1.401630   -0.188487
C      -0.354249   -0.103488   -0.328411
O      -1.398069   -0.678698   -0.077342
N       0.758553   -0.774167   -0.758435
C       0.731287   -2.206053   -0.991592
C       0.234554   -2.574815   -2.396553
C       0.160015   -4.102694   -2.581541
C      -0.262230   -4.483717   -3.927040
N      -0.591469   -4.767574   -4.997685
H      -0.800178    1.893715   -0.957027
H      -0.593841    1.705034    0.782514
H       0.836837    1.746073   -0.278985
H       1.578484   -0.253152   -1.019778
H       1.737114   -2.606925   -0.822863
H       0.062846   -2.639425   -0.241936
H      -0.757159   -2.138835   -2.545218
H       0.898140   -2.146217   -3.155404
H       1.136846   -4.561529   -2.384918
H      -0.541642   -4.536630   -1.859571
