18

C       0.790130    0.266041   -1.024377
C       0.214957   -0.730921   -0.133021
C      -0.236987   -1.566040    0.608451
C      -0.828877   -2.547549    1.518282
N      -1.697513   -3.593891    0.944530
C      -2.129641   -3.501875   -0.437519
C      -1.144242   -4.556230   -0.027666
C       0.224959   -4.513727   -0.460001
C       1.382102   -4.554872   -0.786612
H       1.534764    0.876777   -0.501876
H       1.289877   -0.205917   -1.877526
H       0.024938    0.943844   -1.418481
H      -0.039758   -3.057599    2.082498
H      -1.445530   -2.017407    2.254520
H      -3.161808   -3.782878   -0.630282
H      -1.741505   -2.684680   -1.039665
H      -1.520914   -5.565074    0.130700
H       2.400408   -4.565898   -1.086928
