15

C       0.021826   -1.181203   -0.021223
C       0.022359    0.020906   -0.000220
C       0.022644    1.456689    0.024600
C      -0.686460    2.434518    0.998896
N       0.003359    3.411982    0.030975
C       1.206872    2.455707    0.145413
C      -0.507139    2.449805   -1.065533
C       0.148336    2.528107   -2.361653
N       0.649755    2.572585   -3.402152
H       0.024089   -2.243456   -0.043114
H      -1.777695    2.481349    0.975247
H      -0.298738    2.492343    2.016898
H       1.713071    2.514301    1.110331
H       1.908952    2.522757   -0.686730
H      -1.591495    2.493123   -1.193302
