20

O       0.012119    1.344822    0.363053
C      -0.047828   -0.016929   -0.043608
C      -1.484457   -0.463039    0.052778
C      -1.979203   -1.140903    1.278366
N      -1.717028   -1.923547    0.060374
C      -2.843857   -2.199417   -0.830179
C      -4.243554   -1.703907   -0.554883
C      -3.334249   -0.921057   -1.471062
C      -2.500380    0.217493   -0.876080
H       0.907141    1.662371    0.212631
H       0.300437   -0.137305   -1.082738
H       0.575462   -0.662937    0.591896
H      -1.290809   -1.342437    2.095787
H      -3.001576   -0.970481    1.598491
H      -2.725087   -3.118028   -1.393261
H      -5.047826   -2.265565   -1.019372
H      -4.509458   -1.295242    0.412963
H      -3.583840   -0.872681   -2.525255
H      -3.105257    0.964423   -0.352578
H      -1.966878    0.747453   -1.670725
