18

O      -0.157539    0.025506    0.079501
C      -0.082773    1.221726   -0.002302
N      -1.024602    2.217641   -0.139392
C      -0.089373    3.332932    0.085437
C      -0.227601    4.018801    1.465629
O       0.997873    4.131617    2.158322
C       1.572014    2.858216    2.410889
C       2.107286    2.239878    1.118242
C       1.060920    2.268911    0.006166
H      -2.030736    2.176825   -0.054170
H      -0.091472    4.066552   -0.725212
H      -0.610631    5.037596    1.358227
H      -0.948993    3.444262    2.070912
H       2.382849    3.020312    3.126138
H       0.827367    2.197500    2.885740
H       2.986741    2.811191    0.802851
H       2.432315    1.207675    1.290864
H       1.541237    2.282725   -0.975780
