12

F       0.010258    0.051408    0.002853
C      -0.013283    1.373629    0.010492
C      -1.239939    2.023883    0.030886
C      -1.178647    3.418446    0.037771
N      -0.002060    4.078305    0.025306
C       1.087549    3.322287    0.006207
N       1.149873    1.984769   -0.002047
C      -2.377906    4.193460    0.058460
C      -3.403280    4.821718    0.075960
H      -2.175934    1.482837    0.040704
H       2.040480    3.844579   -0.003952
H      -4.301373    5.389308    0.091390
