17

O       0.000424    1.304974    0.092288
C       0.038921   -0.067778   -0.008054
C      -0.590199   -0.944472   -1.092462
C      -0.409056   -2.110092   -0.073007
C      -0.303516   -1.032420    1.082458
C       1.162536   -0.892705    0.663846
C       1.114224   -2.253421    0.030303
C       1.915616   -3.442469    0.293530
O       1.962728   -2.764598   -0.980125
H       0.705748    1.669588   -0.454245
H      -1.644385   -0.691158   -1.232683
H      -0.086217   -1.047378   -2.059583
H      -1.065912   -2.976129   -0.088029
H      -0.769634   -0.930471    2.050053
H       1.960042   -0.403850    1.207954
H       2.823651   -3.369506    0.891124
H       1.451170   -4.428040    0.277733
