18

C      -0.287165    1.524186   -0.053261
C       0.136229    0.073245   -0.076115
O       1.421754   -0.107690   -0.766064
C       1.985194   -0.753742    0.308997
O       3.079185   -1.209532    0.392445
C       0.737011   -0.600645    1.194470
C       0.790343    0.110690    2.570566
C      -0.191867   -0.983035    3.061042
N       0.130101   -1.759618    1.843063
H       0.477327    2.149823    0.416211
H      -0.448370    1.889378   -1.071696
H      -1.224378    1.640170    0.501150
H      -0.618333   -0.557189   -0.560978
H       1.779280    0.041335    3.025811
H       0.444750    1.143730    2.601566
H       0.057439   -1.495318    3.995131
H      -1.229499   -0.628399    3.119871
H      -0.633052   -2.212079    1.352589
