18

C       0.008702    1.406413   -0.048952
O      -0.020656   -0.010791   -0.042041
C      -1.282343   -0.549900   -0.002353
C      -2.473645   -0.380132   -0.962581
N      -3.000390   -1.413098    0.028217
C      -1.586578   -2.074157    0.015170
C      -1.390421   -2.601255    1.416925
C      -1.890606   -1.626884    2.180773
C      -2.341427   -0.597316    1.174941
H       1.057551    1.704014   -0.102785
H      -0.525466    1.817486   -0.916518
H      -0.434104    1.823318    0.866303
H      -3.033182    0.558873   -0.946672
H      -2.372185   -0.764764   -1.981069
H      -1.370466   -2.693909   -0.855351
H      -0.963630   -3.554842    1.690851
H      -1.979847   -1.560012    3.255267
H      -2.891523    0.291234    1.485729
