16

C      -0.074351    1.499386   -0.021275
C      -0.019812   -0.001448   -0.021711
N      -0.022906   -0.614664   -1.160634
C       0.010872   -1.993882   -1.220561
N       0.031034   -2.624328   -2.319507
O       0.014145   -2.713412   -0.008573
C       0.053878   -2.053697    1.166909
C       0.031187   -0.709326    1.251015
N      -0.053675    0.007735    2.462214
H       0.849691    1.923693    0.392911
H      -0.197514    1.860178   -1.041944
H      -0.897005    1.852893    0.608990
H       0.054706   -3.628580   -2.145800
H       0.078285   -2.728585    2.016015
H       0.029671   -0.592205    3.274196
H       0.633415    0.749502    2.532588
