10

F       0.017109    0.086990    0.003152
C      -0.084904    1.385734    0.011692
N      -1.212236    1.958752    0.030190
C      -1.200058    3.358882    0.037723
N      -2.215754    4.118815    0.055771
C       0.155553    3.946167    0.022491
F       0.248994    5.249343    0.028451
N       1.265278    3.313002    0.003906
O       1.145003    1.906738   -0.002186
H      -3.066690    3.551740    0.064255
