24

C      -0.248837    1.505806   -0.131031
C       0.096829    0.029673   -0.019666
N       1.077183   -0.520430   -1.028473
C       2.388113    0.086444   -0.714059
C       1.925666   -1.036266    0.126478
C       2.594526   -2.381840    0.104072
C       0.915703   -0.547039    1.192146
C       1.449822    0.416551    2.253823
C       0.161554   -1.693702    1.871590
H       0.613130    2.163796    0.006695
H      -0.674222    1.712564   -1.118727
H      -0.996640    1.779836    0.620928
H      -0.826322   -0.545537   -0.142604
H       3.137561   -0.136254   -1.468405
H       2.440874    1.101142   -0.331662
H       3.023956   -2.574387   -0.883435
H       3.407841   -2.425808    0.838583
H       1.895156   -3.192398    0.329474
H       2.004825    1.255092    1.826646
H       0.630442    0.832038    2.851644
H       2.123531   -0.107510    2.941692
H       0.805202   -2.238741    2.571487
H      -0.689761   -1.303515    2.440928
H      -0.227261   -2.411240    1.142535
