16

C       0.040092    1.492557   -0.077816
C       0.043399   -0.014663   -0.025385
O       1.051636   -0.687495   -0.036946
N      -1.193072   -0.671260    0.030090
C      -1.243828   -2.126754    0.106283
C      -2.750130   -2.377764   -0.066639
O      -3.377547   -1.112604    0.196143
C      -2.467207   -0.107867    0.155817
O      -2.760659    1.050943    0.229687
H       1.076176    1.819468   -0.162058
H      -0.548287    1.856792   -0.923053
H      -0.423222    1.912033    0.818003
H      -0.636866   -2.579943   -0.678468
H      -0.862098   -2.475442    1.071242
H      -3.004069   -2.684244   -1.086397
H      -3.149559   -3.110753    0.635720
