18

C       0.031206    1.551707   -0.067572
C       0.131022    0.046248   -0.057822
O       0.888736   -0.417662   -1.152027
C       1.289676   -1.720453   -0.787025
C       1.512557   -1.606573    0.761190
C       2.984706   -1.483395    1.158980
O       0.839274   -0.395506    1.098110
C       0.879089   -2.743170    1.462515
N       0.393508   -3.643937    1.999197
H       1.032643    1.987913   -0.063132
H      -0.503531    1.881584   -0.961551
H      -0.514532    1.892283    0.815339
H      -0.866935   -0.428187   -0.069246
H       0.511664   -2.461031   -1.015463
H       2.204958   -1.975203   -1.323861
H       3.439723   -0.679463    0.574954
H       3.068476   -1.240689    2.220550
H       3.518996   -2.418270    0.968470
