13

O      -0.168104   -0.027306   -0.112381
C      -0.066893    1.166502   -0.055676
N       1.139002    1.856752    0.005155
C       1.417875    3.304368    0.070673
C       2.940999    2.960188    0.047099
C       3.733788    3.390471    1.180571
N       4.352709    3.735313    2.093433
C       2.486075    1.457722    0.031276
O       3.033387    0.405465    0.025686
H      -0.925610    1.866495   -0.046004
H       1.065553    3.864024   -0.797895
H       1.077662    3.775562    0.994476
H       3.433583    3.231922   -0.889743
