23

O       0.022943    1.346313   -0.131365
C       0.045984   -0.073591   -0.176627
C      -1.377689   -0.576675    0.019884
C      -1.475688   -2.105246   -0.006294
C      -2.909869   -2.605998    0.178182
C      -3.805568   -2.498966   -1.095609
C      -3.529398   -3.999738   -1.388109
C      -3.070652   -4.148526    0.087070
O      -1.900794   -4.878849    0.378371
H       0.922518    1.664623   -0.249087
H       0.437622   -0.434403   -1.142285
H       0.697809   -0.486558    0.610890
H      -1.752382   -0.191672    0.976622
H      -2.009569   -0.135366   -0.760524
H      -1.065954   -2.487752   -0.950284
H      -0.848874   -2.532757    0.784993
H      -3.329899   -2.159519    1.085524
H      -4.854070   -2.305672   -0.855303
H      -3.489918   -1.781705   -1.857018
H      -4.361223   -4.620014   -1.731955
H      -2.682220   -4.134109   -2.066205
H      -3.907437   -4.481711    0.718821
H      -2.091400   -5.814887    0.262713
