20

C      -0.082877    1.558753   -0.038181
C       0.022610    0.029821    0.048348
N       0.657667   -0.541388   -1.137930
C       1.962878   -0.921525   -1.307951
O       2.407370   -1.203887   -2.405506
C       2.805065   -1.044428   -0.041079
C       2.275914   -0.249180    1.157100
C       0.769458   -0.467642    1.298557
O       0.207016    0.210256    2.409819
H       0.903802    2.026764   -0.102180
H      -0.643616    1.843086   -0.934324
H      -0.600951    1.953297    0.837822
H      -0.996124   -0.373423    0.103432
H       0.155485   -0.461219   -2.011622
H       2.836610   -2.114631    0.200749
H       3.826099   -0.761287   -0.305901
H       2.786533   -0.564896    2.075350
H       2.479028    0.820420    1.037022
H       0.585010   -1.551969    1.379379
H       0.668818   -0.082515    3.201462
