19

C      -0.230441    1.552963    0.772528
C      -0.094120    0.067714    0.490329
C       1.086144   -0.448538   -0.387476
N       1.998487   -0.070253    0.760737
C       0.833243   -0.808690    1.385867
C       0.881979   -1.888662    0.232209
C      -0.303879   -2.793982   -0.120761
C       2.101264   -2.700287    0.241276
N       3.044794   -3.369938    0.239851
H       0.735185    2.003818    1.001816
H      -0.662624    2.065806   -0.093715
H      -0.906810    1.718098    1.618353
H      -1.063911   -0.372948    0.262536
H       1.329140   -0.211312   -1.424780
H       2.834669   -0.660678    0.760075
H       0.775283   -1.000055    2.458873
H      -1.251037   -2.255651   -0.146859
H      -0.146966   -3.254159   -1.100872
H      -0.391611   -3.601577    0.612109
