17

O       0.182440    1.271528   -0.386480
C       0.026638   -0.083540   -0.058758
C       0.533761   -0.394034    1.362129
O       1.486167    0.170973    1.856584
C      -0.384904   -1.384679    1.943391
C      -1.478025   -1.469483    1.161400
C      -1.410479   -0.601724   -0.033970
C      -2.574579    0.293004   -0.419793
C      -2.213939   -0.876257   -1.285818
H       0.899572    1.592011    0.180856
H       0.612965   -0.719068   -0.747358
H      -0.217677   -1.882219    2.889168
H      -2.346084   -2.088973    1.366071
H      -3.477590    0.238924    0.178294
H      -2.298581    1.287069   -0.751064
H      -1.723462   -0.680071   -2.233552
H      -2.869872   -1.740916   -1.289715
