19

C       0.112426    1.465412    0.003507
C      -0.026295   -0.082596    0.028921
C       0.613810   -0.600484    1.247759
C       1.152688   -0.997028    2.245929
C      -1.454617   -0.442088    0.042150
C      -2.624918   -0.712264    0.019108
C       0.619772   -0.666999   -1.243843
C       2.099977   -0.925081   -1.336915
C       1.125039   -2.079043   -1.315745
H       1.170243    1.738555   -0.013736
H      -0.374738    1.863712   -0.890491
H      -0.356568    1.908089    0.884585
H       1.614154   -1.353400    3.133719
H      -3.656965   -0.962203    0.010959
H       0.136672   -0.282457   -2.137077
H       2.601124   -0.678721   -2.266360
H       2.696794   -0.768972   -0.445258
H       1.085209   -2.673622   -0.410013
H       0.951519   -2.635057   -2.230069
