18

C      -0.088001    1.550887   -0.152011
C      -0.101483    0.031769   -0.034544
C      -1.167168   -0.644888    0.919728
C      -0.332683   -1.933343    0.889685
C       0.686254   -0.760032    1.020965
C      -0.229165   -0.161972    2.135028
N       1.880146   -0.748786    0.174544
C       1.042140   -0.558088   -0.974666
O       1.269878   -0.696784   -2.137811
H       0.928708    1.956815   -0.109609
H      -0.509741    1.833859   -1.122403
H      -0.690460    2.037773    0.619413
H      -2.255281   -0.558157    0.890961
H      -0.425108   -2.603091    1.747169
H      -0.315652   -2.479704   -0.056894
H      -0.165548    0.907242    2.328823
H      -0.331957   -0.732656    3.061656
H       2.614259   -1.449837    0.189877
