19

O      -0.079626    1.332960   -0.539147
C      -0.000447    0.053070    0.067787
C      -1.367283   -0.536708    0.287732
C      -2.367040    0.107440    1.237047
C      -3.538808   -0.896297    1.285973
C      -2.927340   -2.287746    0.965995
O      -3.819709   -3.183007    0.331411
C      -1.694992   -1.958052    0.139876
O      -1.997972   -1.030634   -0.921738
H      -0.526374    1.211326   -1.384636
H       0.604687   -0.642871   -0.531391
H       0.505250    0.202426    1.027973
H      -1.892560    0.218854    2.219655
H      -2.664760    1.106216    0.906953
H      -4.068065   -0.891511    2.240826
H      -4.268631   -0.659216    0.506985
H      -2.611238   -2.796631    1.884634
H      -4.039580   -2.795562   -0.524277
H      -0.964437   -2.725501   -0.104055
