19

C      -0.042386    1.521511   -0.101326
C       0.048661    0.009961   -0.002138
O       0.660360   -0.470913   -1.193137
C       0.730821   -1.870787   -1.220032
O       1.491988   -2.400110   -0.166836
C       0.942521   -2.048701    1.088321
C       0.834400   -0.512434    1.233470
C       2.147193    0.106776    1.377973
C       3.229194    0.610787    1.518773
H       0.956319    1.958444   -0.171852
H      -0.613530    1.802148   -0.990068
H      -0.542366    1.932450    0.781055
H      -0.967302   -0.418283    0.072227
H      -0.292030   -2.296130   -1.189194
H       1.230919   -2.150551   -2.148832
H      -0.064531   -2.485568    1.201084
H       1.596275   -2.473448    1.852428
H       0.236339   -0.296775    2.129492
H       4.187430    1.053248    1.635236
