21

C      -0.122773    1.617319    0.565661
N       0.032008    0.190937    0.304693
C       1.318261   -0.284628   -0.182072
C       0.840420   -0.649087    1.184153
C       1.588442   -0.142135    2.402998
N       0.735413    0.063131    3.563839
C       0.545914    1.292416    4.129819
C      -0.416205    1.319547    5.307598
O       1.096514    2.301189    3.722712
H       0.747199    2.106760    1.023558
H      -0.341166    2.115235   -0.384370
H      -0.978639    1.768958    1.230548
H       1.292613   -1.003507   -0.997355
H       2.140828    0.429754   -0.233776
H       0.410790   -1.642619    1.323727
H       2.374601   -0.868757    2.648703
H       2.076902    0.815114    2.218098
H       0.230547   -0.724856    3.934689
H      -0.693436    0.327084    5.672776
H       0.041988    1.887781    6.119910
H      -1.325190    1.850233    5.008809
