15

N       0.271324    1.381617    0.558920
C       0.093027    0.038909    0.207634
C      -1.047351   -0.589956   -0.255595
C      -2.426697   -0.075355   -0.487986
C      -3.371897   -0.968888   -1.257971
O      -3.149048   -2.106335   -1.594040
N      -0.617809   -1.859543   -0.495896
N       0.680715   -2.007404   -0.232599
N       1.117622   -0.853617    0.209517
H       1.227292    1.529532    0.862056
H      -0.356632    1.689395    1.292124
H      -2.950131    0.147488    0.458313
H      -2.389736    0.895189   -1.005046
H      -4.348003   -0.491675   -1.489050
H      -1.170349   -2.608024   -0.887841
