20

C      -0.007097    1.515180    0.025918
C       0.008499    0.009394    0.080213
N       0.085741   -0.651909    1.169538
O       0.134738    0.197027    2.290489
C      -0.058291   -0.761460   -1.222225
C       0.046481   -2.304219   -1.118511
C      -0.877321   -2.860922   -2.230479
C      -1.803117   -1.703073   -2.515192
C      -1.366941   -0.567098   -1.976943
H       0.845283    1.922407    0.578082
H       0.025373    1.878618   -1.003132
H      -0.906708    1.908120    0.511414
H       0.208539   -0.433044    3.014680
H       0.758838   -0.363071   -1.848372
H       1.077830   -2.654631   -1.202070
H      -0.321795   -2.610808   -0.137849
H      -0.314693   -3.132327   -3.135437
H      -1.408509   -3.767394   -1.919004
H      -2.695215   -1.799569   -3.124839
H      -1.844082    0.401483   -2.076401
