18

C      -0.185416    1.529246    0.026873
C       0.016150    0.021931    0.030815
C       1.157149   -0.603411   -0.814850
C       2.165763   -0.218894    0.287082
C       0.924862   -0.590744    1.179423
O       0.800941   -0.293224    2.512839
C       0.799759   -2.042116    0.794849
N       0.584757   -2.991988    1.593061
O       0.960118   -2.042694   -0.561100
H       0.743750    2.093752    0.135133
H      -0.665874    1.849876   -0.903495
H      -0.840026    1.813983    0.856120
H      -0.944647   -0.485508   -0.103725
H       1.304452   -0.444504   -1.879114
H       3.064840   -0.832047    0.375386
H       2.412909    0.840812    0.314124
H       0.627145   -1.135198    2.962551
H       0.525124   -3.896859    1.126946
