20

C       0.079090    1.525240   -0.215949
C      -0.035560    0.043707    0.166443
C      -1.465013   -0.510012    0.123849
C      -2.375856    0.122254    1.171849
C      -2.081654   -0.742389   -1.305083
N      -1.066907   -1.871727   -1.476469
C      -1.576871   -2.069436   -0.049758
C      -2.972125   -1.835335   -0.670754
O      -4.042890   -2.347974   -0.782790
H       1.124951    1.845753   -0.186252
H      -0.289910    1.702415   -1.231926
H      -0.481184    2.177027    0.461369
H       0.594654   -0.548428   -0.499376
H       0.350720   -0.099046    1.184319
H      -2.480989    1.198606    1.007599
H      -3.380729   -0.310915    1.163859
H      -1.959085   -0.018125    2.175160
H      -2.280454   -0.022566   -2.097712
H      -1.429524   -2.598977   -2.098819
H      -1.194139   -2.860362    0.594137
