18

C       0.093215    1.376165    0.549103
C       0.058473    0.075242   -0.219062
O       1.025195   -0.368705   -0.798858
C      -1.252049   -0.713224   -0.212604
O      -2.308742    0.192258    0.024045
C      -1.500293   -1.723835   -1.364640
N      -1.669913   -2.880846   -0.406071
C      -0.368892   -3.014242    0.272173
C      -1.280389   -1.943538    0.722041
H       1.108754    1.772974    0.548182
H      -0.596806    2.091859    0.091750
H      -0.259806    1.226114    1.574619
H      -3.123121   -0.313564    0.122545
H      -2.436426   -1.515875   -1.887920
H      -0.686866   -1.855055   -2.081489
H      -0.306904   -3.901084    0.895440
H       0.539601   -2.753366   -0.262615
H      -1.785642   -1.944129    1.684384
