17

C      -0.115364    1.569256   -0.075479
C       0.039771    0.069810    0.031355
C       1.341733   -0.718055   -0.207084
C       2.609620    0.057375   -0.051083
C       2.794489    0.503879    1.203351
C       1.685167    0.020276    2.057195
O       1.555615    0.079771    3.261773
C       0.707316   -0.706102    1.155411
O       0.057134   -1.784416    1.734393
H       0.782369    2.105415    0.239687
H      -0.335975    1.860056   -1.108466
H      -0.946724    1.910447    0.550158
H      -0.826319   -0.487354   -0.322548
H       1.306786   -1.582188   -0.859789
H       3.266301    0.267752   -0.888612
H       3.610300    1.110116    1.573369
H       0.080658   -1.610255    2.687070
