23

C       0.280734    1.597096   -0.019686
C       0.003914    0.083858    0.026704
C       0.385076   -0.586812   -1.268977
C       0.919411   -1.803213   -1.360605
C       1.210774   -2.687970   -0.180010
C       1.254111   -1.960151    1.157780
C       1.118798   -2.865440    2.365545
C       2.167299   -0.761145    1.273112
C       0.666387   -0.569066    1.232248
H       1.350894    1.793996   -0.139790
H      -0.246827    2.067807   -0.856353
H      -0.049504    2.084382    0.903488
H      -1.084821   -0.038554    0.147905
H       0.184983   -0.020909   -2.176832
H       1.144165   -2.216680   -2.341139
H       0.441869   -3.475278   -0.131676
H       2.157138   -3.224641   -0.340748
H       1.914896   -3.619969    2.386198
H       1.178910   -2.295454    3.298248
H       0.159425   -3.396881    2.359388
H       2.681392   -0.597259    2.214502
H       2.735922   -0.471272    0.395209
H       0.203950   -0.303290    2.180240
