19

C      -0.265430    1.528783    0.029379
C       0.056169    0.071778   -0.034129
O      -0.812796   -0.839262    0.672073
C       0.590387   -0.884240    0.956699
C       1.249146   -1.746155   -0.133972
C       0.674194   -0.744138   -1.166059
C       0.094067   -1.002203   -2.532280
C       1.372488   -0.231348   -2.396543
O       1.307283    1.125021   -2.739584
H       0.604893    2.137948   -0.229412
H      -1.064520    1.783406   -0.674561
H      -0.597754    1.790278    1.037463
H       0.894428   -0.740731    1.987766
H       2.342872   -1.738810   -0.095468
H       0.887064   -2.776363   -0.186757
H       0.131849   -2.008143   -2.936688
H      -0.783553   -0.429095   -2.813581
H       2.298027   -0.732674   -2.684711
H       1.998397    1.588974   -2.255275
