20

C      -0.272186    1.640037   -0.139076
C      -0.055693    0.149868   -0.043823
C       0.645262   -0.815191   -1.031750
N       0.201818   -1.781831    0.088513
C       0.715026   -0.666149    1.020288
C      -1.131948   -1.003235    0.080865
C      -2.020176   -1.126999    1.323064
C      -2.034481   -1.253081   -1.113218
O      -1.900723   -2.105682   -1.951868
H       0.687394    2.167525   -0.170943
H      -0.829115    1.905619   -1.043943
H      -0.830939    2.015539    0.725175
H       0.195545   -1.019429   -2.001016
H       1.732270   -0.735983   -1.109801
H       1.804841   -0.581309    1.011464
H       0.346295   -0.717823    2.044076
H      -1.626923   -0.607746    2.197590
H      -3.014734   -0.713792    1.124353
H      -2.144720   -2.184487    1.578031
H      -2.909124   -0.558422   -1.140640
