15

N       0.013615    0.810117   -0.914274
C      -0.058013    0.015842    0.183548
O       0.782152   -0.042893    1.061267
C      -1.288904   -0.822836    0.239372
C      -1.885751   -1.446467    1.448587
C      -1.422339   -2.340106    0.304862
C      -2.344894   -2.157950   -0.854437
N      -2.941034   -2.918689   -1.647208
O      -2.282613   -0.753722   -0.823355
H       0.825033    1.391609   -1.040502
H      -0.706416    0.784252   -1.615991
H      -1.231323   -1.464964    2.313112
H      -2.943876   -1.307592    1.643351
H      -0.661868   -3.098330    0.414946
H      -3.463416   -2.394900   -2.351010
