15

C       0.029701   -3.781766   -0.042487
C       0.038343   -2.573919   -0.020116
C       0.045855   -1.214784    0.006250
C       0.052216   -0.003201    0.026888
C       0.053637    1.423969    0.053411
C       0.445691    2.246483    1.287396
C       1.641790    1.589395    1.968465
O       2.390404    1.584902    0.717151
C       1.325013    2.258129    0.069421
H       0.024372   -4.843091   -0.064249
H      -0.746217    1.901096   -0.509726
H      -0.213190    2.992183    1.710279
H       2.133823    2.238015    2.699947
H       1.506522    0.582901    2.376117
H       1.562811    3.003916   -0.680610
