19

O       0.029887    1.408332   -0.098340
C       0.077050   -0.003073   -0.012245
C      -1.320411   -0.606492    0.050920
O      -2.000337   -0.246271   -1.170338
C      -3.090828   -1.159669   -1.351151
C      -2.605578   -2.482225   -0.785218
C      -1.206655   -2.876214   -1.179454
O      -0.549069   -2.358767   -2.296578
C      -1.420251   -2.120061    0.111504
H      -0.538366    1.617885   -0.848039
H       0.630682   -0.451294   -0.850183
H       0.615620   -0.246010    0.909644
H      -1.855166   -0.160047    0.904598
H      -3.985366   -0.810612   -0.814898
H      -3.314097   -1.183294   -2.422617
H      -3.341552   -3.229422   -0.510648
H      -0.959657   -3.927012   -1.068793
H      -0.806384   -1.430485   -2.375361
H      -1.248514   -2.607510    1.064569
