22

C      -0.143274    1.478741   -0.061356
C      -0.112295   -0.029807    0.094066
O      -1.454796   -0.512325   -0.039948
C      -1.613476   -1.844885    0.030291
N      -2.755710   -2.365449   -0.061554
C      -2.865438   -3.818549    0.006006
C      -3.566079   -4.221485    1.308655
C      -3.673981   -4.255149   -1.229830
O      -4.924161   -3.601997   -1.288441
H       0.866672    1.886433    0.039439
H      -0.535253    1.756232   -1.043428
H      -0.779942    1.930774    0.703728
H       0.524009   -0.489810   -0.673918
H       0.284722   -0.314293    1.077836
H      -0.680467   -2.412887    0.170809
H      -1.874764   -4.304751   -0.041004
H      -3.014462   -3.851896    2.177766
H      -4.576130   -3.806261    1.333007
H      -3.637973   -5.311556    1.381778
H      -3.073835   -4.056450   -2.133221
H      -3.871355   -5.332230   -1.189340
H      -4.729933   -2.671202   -1.111791
