15

C       0.210325    1.690784    0.210101
N       1.494844    1.853571   -0.481546
C       1.936708    0.678803   -0.640525
O       1.204283   -0.380088   -0.192873
C      -0.042463    0.169605    0.260249
C      -0.506829   -0.518363    1.560812
N      -1.607388   -1.405597    1.165270
C      -1.815653   -1.150765   -0.056320
O      -1.052434   -0.213145   -0.685965
H       0.272934    2.125570    1.213724
H      -0.594902    2.195900   -0.328993
H       2.879521    0.408180   -1.101228
H       0.313625   -1.083444    2.009915
H      -0.864211    0.207689    2.299285
H      -2.574497   -1.604623   -0.682858
