18

C       0.479080    1.633114   -0.066141
C      -0.087453    0.204559    0.084129
C       0.358840   -0.625815   -1.119792
O      -0.386363   -1.052518   -1.959435
C       0.469307   -0.454544    1.343854
O       1.668594   -0.503594    1.541786
C      -0.496246   -1.071153    2.300613
C      -0.215665   -2.497191    2.688344
N       0.007020   -1.418713    3.636076
H       1.571276    1.605913   -0.059277
H       0.136335    2.085659   -1.000330
H       0.149180    2.264131    0.763729
H      -1.180074    0.213147    0.091470
H       1.457372   -0.789697   -1.162749
H      -1.526249   -0.731920    2.255302
H      -1.057991   -3.148232    2.902417
H       0.643734   -2.971132    2.222379
H       1.002188   -1.189660    3.641066
