21

C      -0.160173    1.524274   -0.118297
C       0.009311    0.008686   -0.070967
C       1.224018   -0.522147   -0.893304
C       2.039312   -0.642739    0.421970
C       0.703584   -0.563124    1.211676
C       0.635710    0.249271    2.510243
O      -0.692623    0.407741    2.935332
C       1.456308   -0.415865    3.593535
O       0.968204   -0.749840    4.647622
H       0.787301    2.048960    0.051993
H      -0.526872    1.832793   -1.103084
H      -0.875940    1.864512    0.635782
H      -0.948090   -0.466804   -0.298559
H       1.027128   -1.498246   -1.344309
H       1.619525    0.143190   -1.665391
H       2.653518   -1.535843    0.558801
H       2.670928    0.235170    0.593602
H       0.315298   -1.566198    1.418387
H       1.101141    1.235942    2.330317
H      -0.722559    0.051031    3.837491
H       2.528157   -0.587458    3.369149
