19

C       0.069716    1.497494   -0.000390
O       1.208762    0.624191    0.001318
C      -0.098280    0.045487    0.005441
C      -0.504129   -0.810942    1.219356
C      -1.119196   -2.071199    0.525814
C      -0.183094   -2.203120   -0.702650
C      -0.514738   -0.784345   -1.227625
C      -2.038962   -0.831117   -1.196665
C      -2.396238   -1.596437   -0.161514
H      -0.082229    2.066716    0.916387
H      -0.084309    2.061027   -0.920844
H       0.390697   -1.063756    1.795870
H      -1.211927   -0.310191    1.883708
H      -1.214030   -2.940359    1.176765
H       0.871385   -2.328323   -0.436354
H      -0.493233   -2.992468   -1.390966
H      -0.044155   -0.453097   -2.152714
H      -2.684485   -0.252768   -1.845151
H      -3.397392   -1.775825    0.210299
