19

C       0.088026    1.516042   -0.153481
C      -0.023356   -0.011648    0.044320
N       0.811922   -0.589085    1.094234
C       2.246118   -0.579343    0.828160
C       2.962564   -1.278227    1.955337
C       4.290529   -0.853568    2.409393
O       3.121294   -0.507096    3.153030
C      -1.427933   -0.376692    0.305359
N      -2.535640   -0.631587    0.511257
H       1.115274    1.789853   -0.406291
H      -0.566610    1.852088   -0.962369
H      -0.199839    2.041554    0.761711
H       0.260169   -0.505994   -0.894600
H       0.624211   -0.135010    1.983225
H       2.425119   -1.124408   -0.108528
H       2.679498    0.428114    0.710692
H       2.652247   -2.308392    2.129595
H       4.951968   -1.575504    2.885371
H       4.791132   -0.023620    1.912135
