25

C      -0.016973    1.554687   -0.108812
C      -0.006930    0.028858    0.026084
C       0.695329   -0.500307    1.291448
C      -0.082248   -0.152242    2.568860
C       0.954155   -2.020283    1.169431
O       1.678715   -2.321881   -0.027356
C       1.647796   -2.613113    2.381042
C       0.871887   -3.348978    3.447425
C       1.762771   -4.110584    2.502500
H       1.002225    1.958572   -0.102676
H      -0.485496    1.858374   -1.050403
H      -0.569649    2.041622    0.700938
H      -1.039838   -0.347280    0.013406
H       0.489536   -0.409591   -0.844147
H       1.686310   -0.019229    1.352831
H      -1.064026   -0.641277    2.572255
H       0.448997   -0.468161    3.469713
H      -0.251784    0.925401    2.645180
H      -0.009702   -2.530114    1.032487
H       2.583147   -2.014004    0.097547
H       2.503801   -2.035933    2.728924
H       1.183392   -3.236751    4.480217
H      -0.201524   -3.438519    3.317739
H       1.296053   -4.706613    1.725765
H       2.686528   -4.527877    2.887668
