15

C      -0.053450    1.529323    0.086315
C       0.012621   -0.005421   -0.021124
C       0.695923   -0.463447   -1.223798
C       1.263937   -0.827132   -2.223657
C       1.924905   -1.267951   -3.387034
C       2.501014   -0.565087   -4.407203
O       3.007555   -1.405129   -5.295874
N       2.726586   -2.730940   -4.792745
N       2.112912   -2.608788   -3.711016
H       0.950314    1.961897    0.107495
H      -0.589367    1.956714   -0.765296
H      -0.573960    1.820649    1.002811
H       0.521971   -0.416098    0.860090
H      -1.002983   -0.421231   -0.004362
H       2.604584    0.490553   -4.595872
