20

C      -0.137607    0.865762   -2.025103
C      -0.002287   -0.269883   -1.033178
C       1.324587   -0.638995   -0.357820
C       2.620104    0.098551   -0.621623
C       0.207058   -0.025763    0.430926
C       0.173607    1.295793    1.218861
C      -0.599999    0.484742    2.295974
O      -1.084022    0.711214    3.371642
N      -0.522798   -0.650280    1.523408
H       0.462225    1.734274   -1.739688
H       0.181698    0.557818   -3.026827
H      -1.179345    1.197108   -2.096520
H      -0.629768   -1.128827   -1.264213
H       1.454519   -1.708635   -0.203273
H       2.466701    1.176833   -0.718342
H       3.330190   -0.058430    0.197666
H       3.095625   -0.252128   -1.544197
H       1.140073    1.674194    1.556820
H      -0.406345    2.104225    0.769911
H      -0.859314   -1.590131    1.671931
