21

C      -0.526532    1.588785   -0.128763
C       0.076845    0.186283    0.000342
C      -1.044366   -0.866234    0.042325
C       1.049726   -0.148436   -1.177976
C       2.160545   -0.921754   -0.527382
C       2.122834   -0.823346    0.809961
C       0.972367    0.038149    1.271832
C       3.094662   -1.446322    1.709388
O       3.076365   -1.339099    2.916531
H       0.254436    2.356135   -0.162198
H      -1.125280    1.679769   -1.042132
H      -1.181488    1.815465    0.719621
H      -1.649456   -0.833956   -0.870551
H      -0.633476   -1.876934    0.138712
H      -1.711537   -0.693083    0.893393
H       0.556673   -0.706009   -1.983529
H       1.452106    0.763623   -1.643066
H       2.915610   -1.468826   -1.084068
H       1.345010    1.009626    1.621802
H       0.434690   -0.404182    2.116434
H       3.879174   -2.048303    1.196961
