16

C      -0.015142    1.511062    0.116061
C       0.017194    0.027154   -0.015826
C       0.050256   -0.763269   -1.163865
O       0.057682   -0.222818   -2.415718
C       0.072165   -2.114376   -0.779948
C       0.052078   -2.141676    0.612377
N       0.019062   -0.832937    1.044591
C       0.060997   -3.249061    1.537583
O       0.089467   -4.423966    1.229385
H       0.852432    1.895628    0.666168
H      -0.006634    1.960319   -0.878816
H      -0.916457    1.859987    0.634827
H       0.082428   -0.935948   -3.060137
H       0.099372   -2.988291   -1.412702
H      -0.000881   -0.553039    2.011350
H       0.038725   -2.937647    2.611033
