18

C      -0.027625    1.542217   -0.011817
C      -0.078491    0.035138    0.049878
C       0.304639   -0.794649   -1.243599
C      -0.862685   -1.733695   -0.956437
C      -0.915501   -2.071427    0.535386
N       0.237235   -1.851870    1.365860
C       0.774850   -0.599371    1.160322
O       1.773635   -0.145899    1.673676
C      -1.424613   -0.750169    0.067843
H       1.013421    1.878257   -0.021124
H      -0.530718    1.923118   -0.905992
H      -0.508440    1.987359    0.865760
H       0.110480   -0.190064   -2.132913
H       1.316470   -1.210242   -1.302740
H      -1.393634   -2.338395   -1.682650
H      -1.607160   -2.839636    0.857471
H       0.796887   -2.591696    1.758866
H      -2.420341   -0.355023    0.223644
