16

C       0.023578    1.478881   -0.066304
C       0.046095   -0.015364   -0.063332
N       0.685585   -0.871501   -1.115260
C       0.112744   -1.880343   -0.174588
C       0.459363   -1.014506    1.064134
O      -0.864758   -1.093195    1.662581
C      -1.150293   -1.026622    0.230203
C      -2.486577   -1.041920   -0.264592
C      -3.595947   -1.039541   -0.730476
H       1.040373    1.878268   -0.130435
H      -0.551449    1.862653   -0.915526
H      -0.441678    1.842033    0.855208
H       0.138461   -0.841257   -1.979511
H       0.186110   -2.958932   -0.310851
H       1.333940   -1.026089    1.710577
H      -4.579868   -1.041647   -1.131031
