23

C      -0.442993    1.756993    0.355382
C      -0.506092    0.246433    0.095640
C       0.221735   -0.537179    1.171049
C      -0.449193   -1.156162    2.354919
O      -1.726164   -1.703795    2.004982
C      -1.075368   -2.729587    1.194756
C      -1.709476   -2.981250   -0.162543
C      -1.006219   -4.119512   -0.910410
C       0.283574   -2.047708    1.370747
H       0.592024    2.117140    0.363677
H      -0.982566    2.313715   -0.416929
H      -0.889676    2.007694    1.323237
H      -1.551700   -0.071394    0.069285
H      -0.075368    0.024369   -0.888910
H       1.183803   -0.103348    1.447567
H      -0.276196   -0.918282    3.398701
H      -1.080971   -3.667333    1.770814
H      -2.765010   -3.234049   -0.000593
H      -1.691315   -2.070725   -0.766242
H       0.046297   -3.879846   -1.096270
H      -1.039028   -5.053992   -0.339178
H      -1.480537   -4.305025   -1.878187
H       1.225165   -2.569732    1.479729
