13

O       0.000302    1.447205   -0.116637
C       1.346963    1.794389    0.035263
C       2.277889    0.721030   -0.497564
C       2.068170    0.879384    1.007517
C       1.151275   -0.359615    1.010529
C       0.063676    0.058296    0.038362
C       1.362095   -0.518782   -0.494312
H       1.552300    2.852785   -0.047372
H       3.146166    0.898155   -1.115880
H       2.741633    1.203581    1.787857
H       1.039768   -1.095837    1.793560
H      -0.888069   -0.448659   -0.041462
H       1.446598   -1.402960   -1.109678
