16

C      -0.303316    1.362269   -0.125764
C      -0.684268   -0.073392   -0.438916
O      -1.013092   -0.716477    0.791085
C      -1.296550   -2.090487    0.685642
C      -2.707396   -2.362396    0.249830
N      -3.653850   -2.798583    1.031390
O      -4.746754   -2.879263    0.242387
N      -4.403228   -2.467843   -1.045736
N      -3.184991   -2.164042   -1.037106
H      -0.034530    1.889217   -1.045928
H      -1.139676    1.888183    0.342893
H       0.549805    1.395034    0.557560
H      -1.534146   -0.108815   -1.133699
H       0.153144   -0.606282   -0.917783
H      -0.606593   -2.589965   -0.010893
H      -1.163949   -2.525199    1.679430
