23

C      -0.066518    1.592504   -0.117785
C       0.053530    0.060965   -0.069470
C       0.811667   -0.462839   -1.296797
C       0.715245   -0.455191    1.228849
O       2.050170    0.024995    1.382722
C      -0.114631   -0.191450    2.495398
C       0.488045   -0.874466    3.734760
C      -0.174247   -0.422654    5.012444
O      -0.686491   -1.146900    5.826565
H       0.920348    2.071481   -0.118883
H      -0.567906    1.906202   -1.038225
H      -0.641696    1.996221    0.721026
H      -0.962302   -0.357608   -0.087017
H       1.851881   -0.124239   -1.276679
H       0.818792   -1.557599   -1.321309
H       0.352326   -0.108892   -2.225049
H       0.836382   -1.541264    1.125540
H       2.010496    0.983727    1.470816
H      -0.178709    0.891630    2.670521
H      -1.141652   -0.541803    2.337409
H       0.419084   -1.964260    3.668384
H       1.550727   -0.600349    3.786227
H      -0.162374    0.684496    5.162733
