15

N      -0.024020    1.129846   -0.859200
C      -0.033637    0.129567   -0.070455
N       1.158351   -0.457540    0.392294
C       1.470926   -1.503407    1.216304
C       0.654599   -2.350589    1.883227
C      -0.772068   -2.346585    1.879760
C      -1.637809   -1.527083    1.234743
C      -1.421343   -0.392792    0.341862
O      -2.378914    0.195214   -0.120346
H       0.925760    1.428027   -1.094679
H       1.968529    0.016792    0.018913
H       2.543988   -1.629450    1.315952
H       1.146990   -3.108637    2.480372
H      -1.227624   -3.122823    2.490654
H      -2.700248   -1.702338    1.372708
