14

C      -0.040304    1.499834   -0.001875
C       0.010862   -0.003064   -0.009996
C      -0.077494   -0.748032   -1.182374
N      -0.032536   -2.085657   -1.195561
C       0.102226   -2.681597   -0.022661
O       0.152802   -4.027159    0.019069
C       0.193463   -1.952266    1.173722
N       0.147696   -0.630371    1.172946
H       0.872736    1.915385    0.436503
H      -0.152207    1.900575   -1.012588
H      -0.878442    1.854883    0.606373
H      -0.188264   -0.258238   -2.146475
H       0.074268   -4.331656   -0.895950
H       0.303751   -2.466354    2.124216
