18

C      -0.036174    1.463597   -0.084834
C       0.030546   -0.029393    0.082439
C      -0.835717   -0.751515    1.081196
C       0.672898   -0.691297    1.258595
C       1.482185   -1.911254    0.898733
O       0.884122   -2.622426   -0.193437
C       0.532410   -1.936272   -1.317691
N       0.421047   -2.475941   -2.452577
O       0.269982   -0.618928   -1.188700
H       0.900368    1.847631   -0.500542
H      -0.849265    1.736559   -0.764068
H      -0.212682    1.944984    0.880464
H      -1.452265   -0.146853    1.736715
H      -1.271389   -1.701848    0.794623
H       1.088309   -0.072597    2.048180
H       2.508724   -1.625716    0.630531
H       1.529588   -2.637271    1.714747
H       0.717647   -3.447833   -2.392905
