12

N      -0.101335    1.244201    0.269023
C      -0.033568    0.017055   -0.013706
O       1.115720   -0.678275   -0.283370
C       0.827228   -1.977522   -0.831833
C      -0.659481   -2.181124   -0.635235
O      -1.035157   -2.063812    0.732776
C      -1.193582   -0.914476   -0.122083
H       0.825859    1.672903    0.246580
H       1.095039   -1.988628   -1.895024
H       1.431255   -2.716739   -0.297833
H      -1.222819   -2.879284   -1.246515
H      -2.199019   -0.538445   -0.263834
