21

C      -0.143733    1.595499    0.097793
C       0.054653    0.093356    0.085404
C       1.356119   -0.635401   -0.203023
C       2.702262    0.088261   -0.075061
O       2.932593    1.149992   -0.995692
C       2.730758    0.509526    1.386999
C       1.671190    0.055634    2.056425
C       0.730945   -0.720859    1.180812
C       0.071668   -1.961536    1.737439
H       0.645290    2.116437    0.646585
H      -0.181273    1.995329   -0.922415
H      -1.093789    1.852724    0.579383
H      -0.798853   -0.428708   -0.344842
H       1.305202   -1.477157   -0.884761
H       3.517837   -0.615832   -0.284681
H       2.234969    1.800605   -0.869057
H       3.526181    1.131174    1.782713
H       1.467636    0.226403    3.109153
H      -0.593460   -1.716189    2.574310
H      -0.530350   -2.464378    0.974279
H       0.815475   -2.677708    2.104907
