14

O       0.070701    1.333452   -0.017310
C       0.049141   -0.015816   -0.008571
C       0.035094   -0.705898   -1.218389
C       0.013009   -2.091933   -1.186875
C       0.005650   -2.744611    0.047899
N       0.018811   -2.102553    1.211864
C       0.040186   -0.761881    1.189952
C       0.054856   -0.038789    2.422893
C       0.068412    0.660525    3.405202
H       0.077903    1.641311    0.901608
H       0.041709   -0.147635   -2.147476
H       0.001549   -2.665287   -2.107230
H      -0.011572   -3.829714    0.098598
H       0.079530    1.236670    4.297808
