21

C      -0.150864    1.542510   -0.093574
C      -0.002382    0.027334   -0.021069
O      -1.273463   -0.580029   -0.111034
C       1.166649   -0.610966   -0.865756
C       2.114521   -0.204279    0.304385
C       0.857465   -0.565085    1.143734
C       0.645576   -0.250723    2.597006
O       0.753146   -1.983474    0.913994
C       0.944712   -2.085854   -0.515959
H       0.791597    2.084333   -0.005934
H      -0.596449    1.827081   -1.056122
H      -0.821542    1.888335    0.699574
H      -1.791964   -0.098817   -0.763665
H       1.357468   -0.349910   -1.907014
H       2.985850   -0.838666    0.478666
H       2.399900    0.846058    0.316066
H       0.748799    0.822235    2.783122
H      -0.355443   -0.566066    2.906052
H       1.376699   -0.781753    3.213905
H       0.048405   -2.507513   -0.979770
H       1.811744   -2.719460   -0.735977
