19

C      -0.268221    1.542074    0.099379
C       0.019592    0.038041    0.001282
C       0.851673   -0.367939   -1.249015
C       2.381304   -0.407308   -1.000161
C       2.634810   -0.866714    0.450074
O       1.515952   -1.687318    0.906218
C       0.764497   -0.483617    1.252528
C       2.119378    0.224653    1.393716
O       2.575406    1.138685    2.010361
H       0.652888    2.133670    0.102412
H      -0.878077    1.870713   -0.747444
H      -0.813856    1.784534    1.017761
H      -0.940610   -0.488482   -0.051631
H       0.541332   -1.372106   -1.544729
H       0.619693    0.295124   -2.088031
H       2.855073   -1.092487   -1.709730
H       2.847637    0.573988   -1.147567
H       3.606489   -1.332934    0.625972
H       0.128976   -0.613490    2.132083
