13

N       0.065997    1.420303   -0.136461
C      -0.086016    0.054304   -0.055799
C      -1.123653   -0.815293   -0.060933
O      -2.493674   -0.933275   -0.026217
C      -2.699913   -2.339035   -0.248499
O      -1.462227   -3.047448    0.006294
C      -0.524112   -2.074775   -0.024102
N       0.776563   -2.087138   -0.004986
O       1.064502   -0.677892   -0.024488
H       0.946104    1.742912    0.243677
H      -0.717106    1.942136    0.230777
H      -3.462953   -2.704041    0.441500
H      -2.987520   -2.508650   -1.294659
