14

C       0.046856   -1.211335    0.000856
C       0.038512   -0.009760    0.027154
C       0.020765    1.421608    0.067602
C       0.437277    2.234155    1.285923
C       1.646698    1.583493    1.947895
O       2.376089    1.565963    0.682971
C       1.307587    2.244330    0.043233
C       1.586685    3.247290   -0.934652
N       1.788336    4.061304   -1.731455
H       0.059461   -2.272840   -0.034914
H      -0.783891    1.900313   -0.485482
H      -0.189380    3.011951    1.698872
H       2.154098    2.234168    2.665361
H       1.512031    0.578677    2.357020
