17

C       0.416135    1.558732   -0.182758
C       0.063609    0.105944    0.023102
O       0.887243   -0.813301   -0.772725
C       1.155528   -1.639725    0.357721
C       2.512655   -1.292376    1.054482
N       1.823303   -0.198661    1.805081
C       0.489379   -0.630233    1.316625
C       3.034340   -2.365783    1.894118
N       3.417923   -3.213433    2.581276
H       1.437420    1.756655    0.148696
H       0.322871    1.819151   -1.241408
H      -0.269109    2.196960    0.385700
H      -0.994172   -0.081459   -0.207346
H       0.907246   -2.692062    0.212876
H       3.290880   -0.935582    0.372752
H       1.943146   -0.253979    2.808990
H      -0.263122   -0.856428    2.071648
