10

C       0.375920    1.404694    0.066492
C       0.134236   -0.078360    0.062914
O      -0.089041   -0.762219    1.029668
C       0.182931   -0.759989   -1.321713
O       0.398900   -0.164871   -2.345008
C      -0.057531   -2.213456   -1.300976
N      -0.240338   -3.354208   -1.340662
H       1.355832    1.625641   -0.369427
H      -0.362510    1.906096   -0.567860
H       0.319676    1.782508    1.087046
