16

C       0.251993    1.555597    0.008024
C       1.334124    0.497046   -0.008141
C      -0.115033    0.103930    0.003717
C      -0.804701   -0.719354    1.101683
C      -1.222635   -1.743119    0.004420
C      -0.825845   -0.707509   -1.089572
H       0.102932    2.119672    0.923796
H       0.085348    2.129523   -0.898551
H       1.896909    0.356590   -0.926084
H       1.914502    0.346733    0.897201
H      -0.173544   -1.092123    1.913458
H      -1.664050   -0.201606    1.540701
H      -0.576193   -2.624086   -0.006580
H      -2.262499   -2.076539    0.012651
H      -1.693451   -0.185134   -1.506303
H      -0.210508   -1.071413   -1.917357
