18

C      -0.175028    1.600931   -0.026862
C       0.004739    0.083715   -0.005886
C      -1.346626   -0.632116   -0.153994
N       0.881380   -0.340336   -1.119217
C       1.734850   -1.153290   -0.642203
N       1.643430   -1.461616    0.711986
C       0.739603   -0.464386    1.297284
C       1.480271    0.546093    2.066004
N       2.082306    1.314397    2.685678
H       0.786884    2.114942    0.032728
H      -0.659926    1.891674   -0.962214
H      -0.799307    1.937704    0.806932
H      -1.786035   -0.389645   -1.124597
H      -1.222081   -1.717827   -0.098962
H      -2.041828   -0.319110    0.632210
H       2.492576   -1.654651   -1.237654
H       2.486731   -1.694316    1.217444
H       0.019190   -0.934380    1.973591
