19

C      -0.086349    1.482916    0.072440
C       1.375661    1.962590   -0.140053
C       1.899415    1.687115   -1.631138
C       1.745529    0.179246   -1.486821
C       0.438696   -0.199615   -1.450255
C       0.027309   -0.100324    0.006509
C       1.328024   -0.340593    0.798214
C       2.156973    0.940745    0.721145
C       2.443373   -0.217561   -0.197723
H      -0.406215    1.762237    1.084302
H      -0.802217    1.901392   -0.643835
H       1.521662    3.004300    0.154826
H       1.252969    2.136874   -2.388775
H       2.922242    2.061475   -1.748516
H      -0.267724    0.140597   -2.206312
H      -0.863234   -0.620572    0.367786
H       1.360167   -0.996345    1.659166
H       2.820841    1.245791    1.520842
H       3.357759   -0.799098   -0.176561
