17

O       0.312688    1.018950   -0.607747
C      -0.216827   -0.006234    0.203803
C      -1.734461   -0.049748    0.141512
O      -2.073016   -0.335382   -1.225786
C      -3.363699   -0.202398   -1.565433
N      -3.726363   -0.462834   -2.745512
C      -5.118055   -0.315774   -3.120936
C      -6.047325    0.133277   -2.067012
N      -6.734109    0.486136   -1.206774
H       0.002104    0.850966   -1.504781
H       0.181931   -0.994658   -0.071885
H       0.091794    0.204913    1.232644
H      -2.134466   -0.831864    0.799353
H      -2.154047    0.920530    0.432463
H      -4.023021    0.137337   -0.756699
H      -5.186545    0.390121   -3.957943
H      -5.482669   -1.275016   -3.508795
