21

C      -0.246324    1.591388   -0.045156
C       0.006096    0.079511    0.002098
C       0.784004   -0.453561   -1.199475
C       0.042250   -0.488476   -2.564463
O       0.363972   -1.880702   -2.749882
C       0.909962   -1.992510   -1.415558
C       2.399327   -2.361649   -1.411851
C       3.078149   -1.010669   -1.423614
C       2.219369    0.002525   -1.304565
H       0.690175    2.157913   -0.037137
H      -0.798831    1.875226   -0.947789
H      -0.835280    1.916178    0.817794
H       0.549861   -0.173859    0.921063
H      -0.956323   -0.445231    0.056951
H      -1.043104   -0.327779   -2.490280
H       0.445443    0.138180   -3.368269
H       0.288185   -2.639873   -0.785693
H       2.683314   -2.956245   -0.533078
H       2.634952   -2.965799   -2.296077
H       4.153535   -0.901452   -1.518054
H       2.497466    1.051008   -1.296633
