14

N      -0.155276    1.478564   -0.104449
C      -0.098974    0.046704   -0.049140
C      -0.452615   -0.737251    1.168109
O      -1.415809   -0.026252    1.940092
C      -2.398696   -0.122222    0.869723
C      -1.385727   -0.797568   -0.056133
C      -1.650187   -1.832581   -0.990949
N      -1.858443   -2.674022   -1.759370
H      -0.411167    1.842220    0.809438
H       0.752793    1.857805   -0.344132
H       0.671289   -0.405009   -0.666804
H       0.135104   -1.502873    1.662920
H      -3.221504   -0.777121    1.167500
H      -2.772836    0.855857    0.552840
