18

O      -0.076371    1.383446    0.004514
C      -0.020521   -0.007700    0.020311
C       0.297347   -0.838879    1.308266
C      -0.445212   -1.935243    0.510790
O      -0.946677   -3.029548    1.210566
C      -1.350994   -0.790928   -0.055636
C       0.519387   -2.197895   -0.667378
C       0.843218   -0.718862   -1.045395
H       0.825275    1.722419    0.029309
H       1.342408   -1.017253    1.578990
H      -0.277993   -0.493090    2.168691
H      -1.353236   -3.632219    0.578126
H      -2.077136   -0.443533    0.681217
H      -1.816953   -0.920993   -1.037076
H       1.397713   -2.767094   -0.350074
H       0.033356   -2.745033   -1.482772
H       0.532710   -0.452091   -2.059566
H       1.907121   -0.479509   -0.939206
