19

C      -0.082668    1.578532    0.060528
C       0.090768    0.073449    0.074844
C       1.355257   -0.683215   -0.216055
C       2.602391   -0.043857    0.378322
O       3.006179    1.155198   -0.250804
C       1.926016    0.012229    1.790331
C       0.707859   -0.726938    1.204495
C       0.036980   -1.806134    1.843767
C      -0.522018   -2.716365    2.400275
H       0.819335    2.103618    0.373128
H      -0.313869    1.914902   -0.955815
H      -0.913782    1.877129    0.708977
H      -0.768785   -0.456136   -0.331820
H       1.375748   -1.477270   -0.952960
H       3.426254   -0.769181    0.389986
H       3.833875    1.440856    0.149199
H       2.459207   -0.573730    2.540783
H       1.725818    1.010674    2.187940
H      -1.019206   -3.518077    2.886766
