15

O       0.459630    0.107188    0.698421
C       0.106431    1.202657    0.338441
C       1.119128    2.227266   -0.016083
N       1.890972    3.042690   -0.293127
C      -1.314003    1.648756    0.156719
C      -1.839782    1.663873   -1.326181
C      -3.166610    1.050447   -0.802422
C      -2.444418    0.654353    0.513835
H      -1.443421    2.635687    0.612048
H      -1.877644    2.633806   -1.823578
H      -1.282721    0.963983   -1.954551
H      -3.927495    1.817549   -0.637182
H      -3.605456    0.245619   -1.394646
H      -2.070073   -0.371419    0.497931
H      -2.969873    0.824300    1.455026
