17

C       0.148183   -1.031502   -0.876842
C       0.048084    0.037434   -0.338058
C      -0.046766    1.332848    0.327055
C       1.309020    2.010654    0.460941
O       1.783082    2.769495   -0.651781
C       1.503881    3.465020    0.563541
C       0.375787    4.486135    0.549510
C       0.818613    5.789777    0.065873
C       1.204778    6.858427   -0.323739
H       0.228718   -1.972419   -1.362225
H      -0.734007    1.980796   -0.225829
H      -0.472749    1.198031    1.330766
H       2.068067    1.373413    0.917314
H       2.394796    3.811910    1.089325
H      -0.447627    4.122960   -0.073310
H      -0.017314    4.589224    1.570254
H       1.537643    7.802591   -0.677521
