16

C      -0.024683    1.410110    0.109959
N       0.009132   -0.027784   -0.010885
C      -0.064106   -0.770712   -1.128435
C       0.020148   -2.104675   -0.747033
C      -0.019703   -3.267569   -1.540128
C      -0.060550   -4.290869   -2.177444
C       0.149909   -2.039464    0.675268
N       0.329694   -3.113156    1.527240
N       0.137310   -0.786778    1.114319
H       0.908607    1.778600    0.546026
H      -0.156092    1.845048   -0.882161
H      -0.855234    1.716483    0.752406
H      -0.170747   -0.327977   -2.105928
H      -0.082796   -5.183359   -2.751391
H      -0.072064   -3.974773    1.186056
H       0.072649   -2.916049    2.484010
