18

C      -0.335431    1.511901   -0.056375
C       0.017266    0.039335    0.001166
N       1.122309   -0.339926   -1.028770
C       2.107693   -0.185666    0.141014
C       2.903350   -0.918283    1.314256
O       1.976548   -0.154900    2.216148
C       1.013106   -0.492836    1.083041
C       1.005362   -2.029096    1.191791
C       2.298071   -2.314689    1.343488
H       0.541448    2.148031    0.084461
H      -0.774212    1.749550   -1.029432
H      -1.064867    1.756564    0.722261
H      -0.882759   -0.576989   -0.105557
H       0.998949   -1.330964   -1.242014
H       2.418511    0.858253    0.142925
H       3.955375   -0.745525    1.541161
H       0.129705   -2.662556    1.163712
H       2.818289   -3.251588    1.476303
