20

C      -0.115738    1.531421    0.002357
C       0.048063    0.036413   -0.000980
C      -0.223620   -0.796667   -1.249121
C      -0.653106   -1.938872   -0.275551
C       0.561727   -2.780585    0.022400
C       1.390608   -2.041565    0.757957
C       0.713642   -0.755631    1.113307
C       1.108952   -0.071434    2.401472
N      -0.744073   -0.920825    0.867451
H       0.641351    1.990604   -0.644823
H      -1.100659    1.812656   -0.386676
H      -0.011072    1.966810    0.997826
H      -1.084002   -0.383335   -1.782062
H       0.585732   -0.996308   -1.958196
H      -1.585976   -2.461299   -0.484089
H       0.762057   -3.743238   -0.430953
H       2.396913   -2.288641    1.071949
H       2.083283    0.421061    2.308066
H       0.370926    0.673748    2.702616
H       1.177455   -0.809824    3.206998
