16

C       0.051517    1.531849   -0.138066
O       1.314128    1.565876    0.559149
C       1.447838    0.132706    0.485403
C       0.002734   -0.009484   -0.037122
C      -1.036500   -0.657274    0.890271
O      -2.002138   -1.175264   -0.010704
C      -1.244863   -1.613771   -1.106068
O      -0.175862   -0.693648   -1.263540
H      -0.728298    2.099313    0.383302
H       0.136567    1.882084   -1.174247
H       2.201283   -0.184007   -0.246654
H       1.672017   -0.314255    1.462335
H      -0.572907   -1.464881    1.480123
H      -1.526892    0.043578    1.567788
H      -0.839409   -2.626114   -0.929124
H      -1.873148   -1.609067   -2.001494
