22

C       0.049936    1.613482    0.223937
C      -0.080514    0.109901   -0.049153
C       0.788827   -0.699277    0.936139
C      -1.516317   -0.335314   -0.018089
C      -2.667034    0.276855    0.427291
C      -3.749475   -0.629364    0.231604
C      -3.243316   -1.778028   -0.331001
C      -3.909731   -3.044857   -0.755089
N      -1.886806   -1.584166   -0.474184
H       1.095417    1.927550    0.147798
H      -0.538404    2.199334   -0.487657
H      -0.298511    1.858204    1.233078
H       0.311758   -0.077788   -1.060898
H       0.724151   -1.775244    0.744839
H       1.841837   -0.407502    0.858092
H       0.459782   -0.527057    1.966223
H      -2.729984    1.268737    0.847095
H      -4.788128   -0.457783    0.472365
H      -3.790608   -3.240151   -1.828815
H      -3.519465   -3.920908   -0.220901
H      -4.981110   -2.986062   -0.549626
H      -1.253628   -2.256545   -0.872517
