17

N      -0.055386   -1.178772   -0.171270
C      -0.030862   -0.027209   -0.071732
C      -0.043937    1.423345    0.049067
C       0.011243    2.092907    1.453097
C       1.483969    1.622975    1.479207
N       1.338931    2.132194    0.023093
C       0.569682    3.280791    0.669475
C       0.003952    4.461692   -0.025856
C       1.121018    4.609658    1.014437
H      -0.742161    1.853720   -0.671815
H      -0.749747    2.068721    2.238141
H       2.191075    2.211442    2.064701
H       1.685457    0.552660    1.546865
H       0.272349    4.617472   -1.065559
H      -0.990474    4.803382    0.242801
H       0.868999    5.049770    1.973858
H       2.110423    4.860297    0.646330
