15

C      -0.081086   -1.238595   -0.037533
C      -0.065929   -0.039282    0.029912
C      -0.009501    1.414422    0.064292
N      -0.507382    1.896544    1.400771
C       0.260936    2.868253    1.689385
N       1.286291    2.604613    2.717901
C       2.128786    2.524895    1.400393
C       1.422119    2.022030    0.066354
C       1.251033    3.400566    0.598956
H      -0.103180   -2.299286   -0.084491
H      -0.566476    1.817795   -0.795752
H       1.624262    3.487512    3.118408
H       3.209987    2.500161    1.496132
H       2.108287    1.802282   -0.747941
H       1.364326    4.378107    0.149851
