17

O       0.102896    1.423024   -0.089490
C       0.077775    0.010260   -0.047272
C      -1.361994   -0.478083   -0.011951
O      -2.000917   -0.106662   -1.206414
C      -2.971543   -1.107374   -1.518914
C      -2.646652   -2.271308   -0.552171
O      -1.411035   -1.888993    0.057837
C      -2.125877    0.059480    1.218805
O      -3.299495    0.320998    1.200543
H      -0.394835    1.687368   -0.872329
H       0.580843   -0.455665   -0.905016
H       0.596944   -0.295229    0.865943
H      -3.981466   -0.719596   -1.361040
H      -2.846283   -1.384710   -2.569917
H      -3.430620   -2.392085    0.203893
H      -2.484462   -3.225601   -1.057792
H      -1.524105    0.111118    2.152294
