12

C      -0.026119    1.364738    0.031396
O       0.027948   -0.064751   -0.042531
C       0.639966   -0.538737   -1.114934
N       1.192199    0.097886   -2.098663
C       1.664487   -0.932187   -2.915747
C       1.360957   -2.124462   -2.364427
O       0.688721   -1.880801   -1.181292
H       0.982830    1.785582    0.051691
H      -0.563343    1.772695   -0.829070
H      -0.555140    1.590404    0.956971
H       2.185420   -0.726290   -3.837117
H       1.514607   -3.157200   -2.621020
