19

C       0.054961    1.268642   -0.235234
O      -0.032683   -0.141015   -0.127894
C      -1.330050   -0.603846    0.158996
O      -2.236334   -0.396745   -0.907908
C      -2.536348   -1.640554   -1.541398
C      -1.934986   -2.683522   -0.646187
C      -1.263222   -2.102157    0.342282
C      -0.468734   -2.733707    1.442664
O      -0.318138   -4.135011    1.303562
H       1.106315    1.512958   -0.402136
H      -0.543423    1.644362   -1.073534
H      -0.284306    1.762253    0.688498
H      -1.717922   -0.047799    1.030312
H      -3.627340   -1.730861   -1.633103
H      -2.117437   -1.671004   -2.559177
H      -2.040290   -3.748174   -0.808031
H       0.502345   -2.220024    1.517259
H      -0.973536   -2.581616    2.406000
H       0.190015   -4.289216    0.500124
