21

C       0.171727    1.506594   -0.123338
O       0.487827    0.129836   -0.188029
C       0.694503   -0.527459    1.055012
C       2.019809   -0.136270    1.695297
C      -0.516534   -0.568530    2.037436
C      -0.351143   -2.118409    2.121512
O      -1.491236   -2.917313    2.024634
C       0.539530   -2.066335    0.840922
O      -0.251712   -2.371612   -0.289032
H       1.014585    2.104576    0.247349
H      -0.060531    1.826380   -1.141729
H      -0.700788    1.695200    0.516509
H       2.014224    0.905191    2.032353
H       2.221633   -0.760881    2.571269
H       2.839002   -0.269286    0.982016
H      -0.441100    0.006463    2.963211
H      -1.453143   -0.320353    1.531685
H       0.207712   -2.425138    3.010545
H      -1.684866   -2.955702    1.075568
H       1.461061   -2.660086    0.828522
H      -0.279992   -1.558371   -0.815623
