16

C      -0.048373    1.526799    0.147731
C      -0.148978    0.090484   -0.324133
O      -1.161689   -0.565042    0.471662
C      -1.390234   -1.850817    0.167640
C      -2.420416   -2.439781   -0.451825
O      -2.226602   -3.812292   -0.463711
C      -1.036353   -4.100959    0.172065
O      -0.604183   -5.206623    0.344167
N      -0.504970   -2.877935    0.531989
H       0.708537    2.058612   -0.435843
H      -1.005957    2.039966    0.026027
H       0.234115    1.568375    1.203180
H      -0.439147    0.028603   -1.380386
H       0.807425   -0.435402   -0.204919
H      -3.316287   -2.057336   -0.904918
H       0.288019   -2.793741    1.143903
