14

C      -0.014975    1.505638   -0.031754
C      -0.007980    0.016500    0.067946
N      -0.041794   -0.723757   -1.027432
O      -0.025883   -2.090345   -0.639280
C       0.018103   -2.112720    0.697108
C       0.031106   -0.842309    1.190263
O       0.075681   -0.846315    2.547944
C       0.090175   -2.175823    2.886405
C       0.056569   -3.010950    1.802989
H       0.883902    1.930656    0.426177
H      -0.053324    1.806343   -1.079984
H      -0.880439    1.926654    0.489772
H       0.125437   -2.375026    3.945334
H       0.059870   -4.087930    1.823999
