22

C       0.136230    1.528741   -0.209123
C       0.075755    0.009425   -0.034887
C       0.655425   -0.464259    1.303794
C       0.628255   -1.976017    1.448000
O       1.458250   -2.646349    0.462999
C       2.202761   -3.361950    1.475757
C       1.432302   -2.638495    2.571460
C       1.864248   -2.085415    3.869412
N       0.953251   -3.249977    3.799219
H       1.169002    1.891587   -0.161967
H      -0.279546    1.835199   -1.173965
H      -0.429958    2.043262    0.575732
H      -0.965039   -0.330693   -0.118674
H       0.626127   -0.483006   -0.844152
H       1.691525   -0.118075    1.406381
H       0.087083   -0.022015    2.134913
H      -0.408665   -2.345570    1.387080
H       2.027105   -4.444151    1.436844
H       3.279298   -3.162383    1.412370
H       2.856165   -2.307061    4.254921
H       1.464245   -1.122432    4.177377
H      -0.004306   -2.961548    3.989937
