18

C       0.003283    1.407790    0.025199
N       0.015292   -0.032202    0.036857
C      -0.007581   -0.787082   -1.127891
O      -0.039776   -0.340152   -2.258803
C       0.015645   -2.205730   -0.679671
C       0.049603   -2.244859    0.656149
C       0.051690   -0.869409    1.197708
C       0.833232   -0.503873    2.446860
C      -0.671156   -0.516430    2.485128
H       0.902701    1.830835    0.489700
H      -0.025756    1.710169   -1.023608
H      -0.878200    1.816291    0.534874
H       0.005058   -3.029732   -1.377733
H       0.073078   -3.116636    1.297136
H       1.379843   -1.295361    2.947069
H       1.331492    0.458882    2.453764
H      -1.184495    0.437834    2.517883
H      -1.178249   -1.316743    3.012214
