21

C      -0.043164    1.573484    0.018090
C       0.014737    0.044286    0.029761
C       0.626923   -0.500594   -1.278574
C       1.057809   -1.953779   -1.207077
O       2.301038   -2.216220   -0.521103
C       1.074785   -2.692602    0.067586
C       0.664251   -2.016067    1.355126
C       0.773992   -0.483179    1.266584
O       2.127417   -0.051688    1.292526
H       0.968998    1.986549    0.056978
H      -0.537095    1.948455   -0.884590
H      -0.594380    1.953987    0.884541
H      -1.010453   -0.346591    0.106167
H      -0.095519   -0.383807   -2.093869
H       1.503083    0.097266   -1.559795
H       0.964634   -2.527104   -2.129035
H       0.973483   -3.777890    0.039152
H      -0.368902   -2.304629    1.587088
H       1.292466   -2.375714    2.178160
H       0.312209   -0.050751    2.162407
H       2.602756   -0.617008    0.666769
