17

C      -0.253904    1.512276   -0.071857
C       0.116480    0.047095   -0.077129
O       1.400149   -0.189891   -0.769692
C       1.957712   -0.750744    0.348585
O       3.055266   -1.188310    0.484112
C       0.704265   -0.587615    1.198806
C       0.733482    0.068414    2.593021
O       0.095489   -1.071479    3.197875
C       0.077656   -1.781512    1.946118
H       0.527411    2.115757    0.399530
H      -0.392692    1.870108   -1.095802
H      -1.191170    1.665399    0.472865
H      -0.656927   -0.564840   -0.551752
H       1.739979    0.240033    2.992223
H       0.137088    0.982688    2.696698
H      -0.939028   -2.047712    1.630801
H       0.702125   -2.682315    1.971092
