22

C      -0.079216    1.514752    0.094407
N       0.126766    0.080995   -0.049027
C       0.661040   -0.521375   -1.256465
C       1.768718    0.307172   -1.889983
C       2.342673    0.074672   -3.255206
C       1.654782    1.382820   -2.933097
C       2.557566    0.300482   -0.566327
C       1.423841   -0.557637    0.054035
C       1.634018   -1.655806    1.054555
H       0.681247    2.145359   -0.384845
H      -1.051389    1.772332   -0.338198
H      -0.110840    1.760474    1.160853
H       0.080707   -1.292537   -1.755832
H       3.422531    0.077405   -3.365414
H       1.831022   -0.623033   -3.911539
H       0.682830    1.574526   -3.376484
H       2.274792    2.267095   -2.821757
H       3.497274   -0.253929   -0.641548
H       2.756480    1.265150   -0.087520
H       1.916120   -1.247128    2.032815
H       0.714373   -2.231969    1.184877
H       2.433702   -2.333222    0.735824
