17

O      -0.030128    0.020868   -0.034487
C       0.013238    1.208583   -0.135529
O       1.154170    1.911713    0.042746
C       1.047325    3.326233   -0.026167
O       0.548246    3.782128    1.213393
C       1.140641    5.041756    1.539962
C       2.474094    5.070429    0.815262
C       3.331707    3.844398    0.963236
C       2.400338    3.968852   -0.215625
H      -0.851883    1.848723   -0.392145
H       0.355142    3.585906   -0.843467
H       0.500421    5.869565    1.201578
H       1.219241    5.088695    2.630913
H       2.925050    6.029155    0.590945
H       4.391202    3.948209    0.761392
H       3.080597    3.122330    1.732714
H       2.786708    4.075205   -1.220897
