21

O       0.034257   -0.144592   -0.195608
C       0.013355    1.050584   -0.012416
C      -1.315002    1.801356    0.092823
C      -1.716666    2.578755   -1.193864
C      -1.400687    4.083592   -1.204324
C       0.052113    4.470677   -0.835516
C       1.086872    3.703870   -1.607770
C       1.632232    2.553814   -1.206807
C       1.320220    1.849952    0.097343
H      -2.063171    1.032254    0.298049
H      -1.293129    2.484010    0.951476
H      -1.257228    2.093723   -2.060527
H      -2.798037    2.470110   -1.328029
H      -1.636181    4.472111   -2.202668
H      -2.073053    4.600496   -0.507902
H       0.174955    5.547119   -0.999401
H       0.195279    4.306858    0.238720
H       1.365305    4.099025   -2.582714
H       2.326793    2.037252   -1.863561
H       1.233676    2.572285    0.916673
H       2.111001    1.138529    0.343060
