14

C      -0.003767    1.372530   -0.005768
O       0.026013   -0.057520   -0.045720
C       0.623034   -0.610057   -1.091349
N       0.695293   -1.921419   -1.204185
N       1.368679   -2.054376   -2.389447
C       1.704618   -3.288843   -2.967560
O       1.446655   -4.357774   -2.501044
C       1.650679   -0.820224   -2.900044
N       1.197637    0.118605   -2.111909
H       1.008871    1.784618    0.011159
H      -0.538618    1.777048   -0.869358
H      -0.529031    1.624873    0.915304
H       2.243560   -3.126643   -3.919251
H       2.178546   -0.678409   -3.831857
