19

O      -0.187588    1.478323   -0.188348
C       0.008660    0.079815   -0.001797
C      -1.386205   -0.545167    0.114083
C      -1.349516   -2.070243    0.043151
C      -1.747123   -2.787259   -1.237689
C      -0.303884   -2.718216   -0.834020
O       0.239791   -3.956161   -0.446368
C       0.641969   -1.804259   -1.527443
C       0.793595   -0.536998   -1.143499
H       0.673776    1.907494   -0.178431
H       0.561043   -0.093675    0.939244
H      -1.856854   -0.211289    1.043633
H      -1.984460   -0.132464   -0.705650
H      -1.572134   -2.605871    0.960247
H      -2.222969   -3.757355   -1.144985
H      -2.076099   -2.184082   -2.077200
H       0.956836   -3.776287    0.172288
H       1.224947   -2.225282   -2.343337
H       1.503889    0.114578   -1.649130
