16

N       0.023573   -1.179658   -0.036663
C       0.021329   -0.029626   -0.150050
C       0.037350    1.424622   -0.281833
C       1.306027    2.041928    0.335924
C       1.308913    3.530409    0.169210
N       0.431905    4.231228   -0.515701
C       0.830177    5.545144   -0.404644
C       1.961433    5.639172    0.356866
N       2.259330    4.342118    0.720630
H      -0.031183    1.698316   -1.338393
H      -0.853500    1.842846    0.195913
H       1.363747    1.774776    1.398032
H       2.191330    1.600692   -0.138969
H       0.277440    6.341648   -0.878264
H       2.567124    6.472848    0.670119
H       3.037410    4.051819    1.289169
