14

C       0.072671    1.482405    0.023503
C      -0.080099   -0.002000    0.002118
C      -1.229795   -0.695063   -0.153723
C      -1.186753   -2.123963   -0.149144
C      -0.003065   -2.752304    0.010275
F       0.098527   -4.075881    0.023061
C       1.250097   -2.031597    0.180422
O       2.344096   -2.499335    0.328509
O       1.103389   -0.642498    0.161483
H       0.746543    1.810691   -0.775055
H      -0.894473    1.970840   -0.106141
H       0.511981    1.809779    0.971815
H      -2.166222   -0.169615   -0.279621
H      -2.091101   -2.709675   -0.271832
