23

C       0.324954    1.452025    0.338090
C      -0.230954    0.146384   -0.240535
C       0.623268   -0.420481   -1.356493
C       1.892155   -1.205466   -1.028136
C       0.693494   -1.899129   -1.583869
O      -0.069118   -2.813545   -0.790054
C      -0.391781   -3.599643   -1.959479
C       0.498756   -2.715555   -2.864541
C      -0.155601   -2.040590   -4.060790
H       1.328592    1.303058    0.749891
H       0.396373    2.229022   -0.431310
H      -0.315078    1.834727    1.139519
H      -0.326734   -0.606532    0.549339
H      -1.247990    0.315155   -0.618047
H       0.676005    0.197980   -2.251350
H       2.769333   -1.083000   -1.656394
H       2.107842   -1.381642    0.021813
H      -0.087836   -4.645489   -1.841408
H      -1.463768   -3.558790   -2.193396
H       1.415883   -3.228610   -3.170161
H      -1.074341   -1.522757   -3.766722
H       0.513780   -1.303823   -4.517876
H      -0.411689   -2.774920   -4.832144
