17

O      -0.086099    1.374610   -0.093794
C       0.005335   -0.012276    0.002176
C      -1.361901   -0.736337   -0.032226
C      -0.945894   -1.554521    1.236581
C       0.415581   -0.810970    1.269961
N       1.635450   -1.401190    0.568528
C       1.206587   -2.149339   -0.629091
C       1.208407   -0.678871   -0.703189
H       0.792134    1.749698    0.038709
H      -2.177946   -0.035771    0.155610
H      -1.585494   -1.304592   -0.938643
H      -1.558992   -1.330451    2.112237
H      -0.900446   -2.640508    1.127678
H       0.719294   -0.341424    2.205814
H       2.034590   -2.674085   -1.098303
H       0.277600   -2.710274   -0.633505
H       1.921401   -0.123342   -1.309351
