21

C       0.020258    1.503590    0.023631
C      -0.034906    0.012201   -0.046664
C      -0.041568   -0.774532   -1.127399
C      -0.007158   -2.224742   -0.769066
C       1.253509   -2.652367   -0.035514
C       0.008822   -2.276287    0.742184
C      -0.705728   -3.331324    1.550940
C      -0.070981   -0.823586    1.231274
O       0.917412   -0.459876    2.190734
H       0.863118    1.829128    0.643716
H       0.117970    1.955161   -0.967178
H      -0.883015    1.909630    0.498085
H      -0.021398   -0.423863   -2.154423
H      -0.546278   -2.955543   -1.362441
H       1.514966   -3.706266   -0.037781
H       2.105386   -1.979387   -0.080181
H      -0.611068   -4.321717    1.094569
H      -0.291730   -3.387865    2.564353
H      -1.774652   -3.105450    1.640745
H      -1.019611   -0.661807    1.763145
H       1.772916   -0.713638    1.825784
