14

O      -0.047532    0.018099    0.061601
C      -0.085018    1.210399    0.018057
C      -1.309224    2.125165    0.034938
O      -1.431330    2.540704   -1.366371
C      -0.569470    3.656043   -1.072197
C       0.931352    3.295442   -0.897590
C       0.803864    3.326454    0.587412
C      -0.739219    3.503191    0.454312
N       1.094549    2.051766   -0.082616
H      -2.228278    1.701593    0.437392
H      -0.788464    4.553365   -1.652101
H       1.759207    3.540746   -1.551946
H       1.468046    3.680378    1.364756
H      -1.306851    4.182949    1.080981
