19

C       1.393710    0.429991   -0.676110
O       0.224923    0.090665   -1.398481
C      -0.940276   -0.028674   -0.582111
C      -1.124895   -1.422657    0.052020
N      -1.829960   -2.400774   -0.760791
C      -1.275787   -2.883573   -1.813596
N      -0.063499   -2.615450   -2.377240
C      -2.068354   -3.947444   -2.517966
O      -1.696015   -4.486099   -3.532702
H       1.274852    1.398627   -0.169625
H       1.656684   -0.327238    0.075868
H       2.209291    0.504836   -1.399054
H      -0.903413    0.732888    0.209723
H      -1.795076    0.194126   -1.228025
H      -0.133735   -1.802519    0.350808
H      -1.704630   -1.291930    0.972484
H       0.328121   -1.692557   -2.233424
H       0.082543   -3.055499   -3.275085
H      -3.023369   -4.184733   -2.013244
