14

C       0.026742    1.510721   -0.048382
C       0.007571    0.018509    0.007320
N      -0.030349   -0.733123   -1.095104
N      -0.035450   -1.972484   -0.621181
N      -0.004304   -2.102381    0.698972
C       0.023928   -0.840251    1.132515
C       0.065011   -0.499871    2.586001
H       0.927386    1.918258    0.424541
H       0.002561    1.847470   -1.086568
H      -0.834561    1.942623    0.473613
H      -0.061841   -2.772394   -1.231298
H       0.961968    0.077226    2.837640
H      -0.800085    0.104690    2.880933
H       0.065547   -1.412616    3.184925
