12

N       0.063626    1.288536    0.154086
C      -0.064304   -0.057402    0.059148
N      -1.163505   -0.752166    0.025769
C      -0.676182   -2.053797    0.002228
N      -1.090851   -3.314392   -0.038132
N       0.086740   -3.973105   -0.049879
N       1.229229   -3.246594   -0.018031
C       0.713980   -2.040057    0.014689
O       1.147724   -0.747838    0.052449
H       0.934669    1.684999   -0.160839
H      -0.769107    1.812373   -0.063516
H       0.120294   -4.977714   -0.069378
