15

C      -0.002578    1.420644   -0.064464
N      -0.029673   -0.030224   -0.027371
C      -1.217495   -0.691112    0.032582
N      -2.365080   -0.110101    0.313002
O      -3.264216   -1.206704    0.315790
C      -2.547530   -2.292952    0.021474
C      -3.255044   -3.598708   -0.050541
N      -1.284641   -2.056923   -0.167610
H       1.035630    1.756119   -0.024084
H      -0.479917    1.835060   -0.963285
H      -0.531120    1.815899    0.806859
H       0.685917   -0.526346   -0.533763
H      -4.048341   -3.565555   -0.803243
H      -2.542772   -4.381830   -0.308917
H      -3.721350   -3.835877    0.910447
