19

O      -0.138573    1.394704   -0.131017
C      -0.070502    0.000341   -0.027326
C      -0.483970   -0.670767    1.252085
C      -1.382492   -0.728908    0.017186
C      -2.689400   -0.022676   -0.018027
C      -3.653072   -0.807483   -0.504277
C      -3.136446   -2.184575   -0.848531
C      -1.590670   -2.027251   -0.784551
O      -1.002827   -1.960127   -2.078644
H       0.594945    1.764225    0.371614
H       0.717144   -0.469152   -0.615468
H       0.029921   -1.577290    1.556855
H      -0.812394   -0.030600    2.064637
H      -2.800333    1.001678    0.313796
H      -4.692358   -0.521388   -0.619330
H      -3.495738   -2.932965   -0.129003
H      -3.433158   -2.538037   -1.842212
H      -1.111813   -2.887489   -0.309942
H      -1.324253   -1.153544   -2.498112
