13

O       0.554912    1.918786    1.430562
C       0.155005    1.557938    0.344195
N       0.932942    0.989448   -0.629076
C       2.291762    0.737579   -0.525808
N       2.980545    0.193062   -1.481117
N       4.256163    0.137896   -0.948357
C       4.363335    0.643110    0.330724
O       5.326856    0.732881    1.054841
N       3.034055    1.033970    0.578917
H      -0.896059    1.651415    0.021551
H       0.512585    0.717739   -1.506158
H       5.009137   -0.249150   -1.488155
H       2.669278    1.457714    1.417992
