12

N       0.184510    1.381665    0.177400
C      -0.003632    0.035792    0.052469
C      -1.100412   -0.750313    0.012872
O      -0.642984   -2.088523   -0.014429
C       0.703702   -2.068423   -0.013545
O       1.441021   -2.997312   -0.047787
O       1.117198   -0.741430    0.033414
C      -2.462407   -0.457694    0.004909
C      -3.636686   -0.180541   -0.007414
H       1.015041    1.735691   -0.277374
H      -0.640578    1.934143   -0.007571
H      -4.671944    0.055881   -0.010187
