19

C       0.057178    1.363144   -0.333002
C      -0.023223   -0.014860    0.334974
C      -1.384244   -0.659189    0.179724
C      -1.875727   -1.280391   -1.102851
O      -0.886704   -1.680023   -2.046691
C      -0.172443   -2.662512   -1.419787
N       0.907461   -3.108812   -2.132973
N      -0.525826   -3.021975   -0.243708
C      -1.629125   -2.162989    0.109851
H       1.042310    1.816461   -0.184360
H      -0.119030    1.283545   -1.410387
H      -0.691023    2.050380    0.077638
H       0.752236   -0.668616   -0.073730
H       0.197009    0.076334    1.405843
H      -2.185982   -0.134908    0.698027
H      -2.819287   -1.034525   -1.573230
H       0.804245   -3.061511   -3.135680
H       1.282436   -3.980203   -1.790497
H      -2.410630   -2.607831    0.715100
