21

C      -0.101498    1.497643   -0.072446
C       0.106068   -0.012226    0.007343
C       1.012672   -0.589166   -1.087489
O       1.419412   -1.864507   -0.595246
C       1.607568   -1.724901    0.808400
C       1.801712   -3.013237    1.558921
C       2.988561   -2.106017    1.270836
O       3.922253   -2.470238    0.304664
C       0.819879   -0.508993    1.288092
H       0.854916    2.029277   -0.010081
H      -0.584281    1.784628   -1.012777
H      -0.735046    1.853818    0.745831
H      -0.864120   -0.517262   -0.067347
H       0.510691   -0.747507   -2.045465
H       1.885498    0.063963   -1.251018
H       1.419584   -3.078382    2.573206
H       1.743299   -3.929292    0.979845
H       3.440330   -1.564863    2.098535
H       3.454436   -2.415136   -0.541398
H       1.493347    0.263847    1.676388
H       0.111811   -0.758765    2.082859
