23

C       0.014139    1.539746   -0.205722
C      -0.072409    0.026894   -0.043342
C       0.247576   -0.621371    1.335501
C      -0.915708   -1.619584    1.093188
C      -1.474700   -0.641811    0.023977
C       1.435066    2.076436   -0.184625
C       1.642677    3.606472   -0.112522
C       2.442703    3.293450    1.166994
O       2.091585    1.896966    1.098407
H      -0.443739    1.835536   -1.161337
H      -0.562398    2.031746    0.589507
H       0.525952   -0.458760   -0.824824
H       1.252279   -1.019319    1.490162
H       0.026928    0.071595    2.152320
H      -0.564215   -2.552586    0.642331
H      -1.560364   -1.868029    1.939760
H      -2.215420    0.040994    0.454468
H      -1.886987   -1.061711   -0.897573
H       2.026320    1.596928   -0.979772
H       2.196443    4.061933   -0.934731
H       0.721033    4.168053    0.055901
H       3.526878    3.446041    1.083322
H       2.092634    3.760729    2.094879
