18

O      -0.016348    1.454866   -0.103137
C       0.080988    0.046772   -0.091339
C      -1.310423   -0.585525    0.066682
C      -1.411302   -2.117459    0.033432
O      -0.235363   -2.641501    0.630219
C      -2.666125   -2.408914    0.900012
N      -2.702204   -1.274900    1.804596
C      -1.950911   -0.212078    1.407275
O      -1.820649    0.841741    2.006367
H      -0.486186    1.689632    0.712195
H       0.524583   -0.258094   -1.045007
H       0.739971   -0.315957    0.708256
H      -1.956361   -0.167275   -0.716485
H      -1.538233   -2.505082   -0.985101
H      -0.262714   -3.601150    0.567303
H      -3.572624   -2.471643    0.281234
H      -2.554715   -3.354513    1.441351
H      -3.256093   -1.237665    2.645124
