18

C       0.191960    1.200580   -0.910479
C       0.567620   -0.252514   -0.648592
C       1.875150   -0.882979   -1.248057
C       2.233774   -1.411331    0.151388
C       2.424840   -0.292047    1.156003
C       3.097609    0.999892    0.876140
O       3.685973    1.635161    1.719959
C       1.017410   -0.722749    0.742972
H       0.990494    1.897745   -0.643223
H      -0.041671    1.353418   -1.970031
H      -0.695723    1.480493   -0.332625
H      -0.275018   -0.884776   -0.949018
H       1.664065   -1.683858   -1.959363
H       2.589893   -0.198327   -1.712281
H       2.630231   -2.397047    0.362755
H       2.664226   -0.644134    2.156277
H       3.064290    1.359008   -0.173086
H       0.350085   -1.070355    1.523599
