21

C       0.185076    1.373684    0.126547
O      -0.265000    0.092670   -0.252534
C       0.552764   -0.522034   -1.215912
C       1.908097   -1.167189   -0.747107
C       1.376692   -2.525463   -1.217642
C       0.102141   -2.846297   -0.492088
C       0.051636   -1.891917   -1.663522
C      -0.795988   -2.131597   -2.876090
O      -2.095914   -1.570878   -2.747495
H       1.185562    1.341861    0.584173
H       0.221988    2.061286   -0.732985
H      -0.523830    1.764778    0.860311
H       0.706767    0.153714   -2.070483
H       2.767954   -0.802778   -1.313361
H       2.124632   -1.091049    0.323335
H       1.953480   -3.286182   -1.729249
H      -0.313411   -3.829574   -0.691854
H      -0.060317   -2.481574    0.518012
H      -0.356275   -1.650959   -3.758518
H      -0.840365   -3.214033   -3.085147
H      -2.402661   -1.764110   -1.855295
