20

C       0.030220    1.572114   -0.053320
C       0.016861    0.065941   -0.095579
C       0.894881   -0.769693   -1.074635
C      -0.224412   -1.814206   -0.823351
C      -0.008875   -2.182599    0.664630
C       0.183623   -0.735593    1.227804
N      -1.142416   -0.648121   -0.732617
C      -2.454800   -0.670681   -0.361997
O      -3.191698   -1.628578   -0.471562
H       1.002149    1.926785    0.305469
H      -0.144555    1.994832   -1.046618
H      -0.734065    1.962230    0.627113
H       0.877280   -0.368925   -2.088745
H       1.908809   -1.021992   -0.757451
H      -0.475239   -2.600559   -1.531061
H      -0.881660   -2.689158    1.080509
H       0.866652   -2.820565    0.810033
H       1.165401   -0.574672    1.681991
H      -0.578282   -0.459069    1.961904
H      -2.804151    0.320583   -0.005121
