12

N      -0.052087    1.371287   -0.122857
C      -0.029071    0.008870   -0.049531
N      -1.172802   -0.671306   -0.030143
C      -1.080628   -1.988688   -0.010113
F      -2.228187   -2.655517    0.007127
C       0.115211   -2.686143   -0.000212
N       1.270305   -1.997713   -0.007767
C       1.192180   -0.704920   -0.032613
F       2.323531    0.011231   -0.032844
H       0.789441    1.865798    0.121195
H      -0.928638    1.818298    0.093137
H       0.152786   -3.767988    0.018273
