15

N       0.042853    1.392111    0.092286
C      -0.022746    0.004704    0.034062
C      -1.210078   -0.679552   -0.013735
N      -2.442252   -0.001109   -0.081224
C      -1.197873   -2.121733   -0.097691
O      -2.230309   -2.791411   -0.204315
C       0.147017   -2.698074   -0.049060
N       1.258383   -2.029798    0.051481
N       1.152233   -0.691822    0.078676
H       0.858504    1.793564   -0.353765
H      -0.806607    1.800495   -0.283864
H      -2.647298    0.525524    0.762623
H      -3.162641   -0.711765   -0.200698
H       0.242693   -3.778948   -0.071711
H       2.027967   -0.211038    0.209282
