23

C      -0.027981    1.272702    0.333167
O      -0.024653   -0.115050    0.106461
C      -1.324932   -0.661409    0.039732
C      -1.207027   -2.164096   -0.180222
C      -2.561373   -2.843068   -0.263719
C      -2.621247   -4.383643   -0.212438
C      -3.575032   -4.168405    0.983961
C      -3.239113   -4.808519    2.314800
O      -3.316347   -2.741710    0.970683
H       1.013489    1.601787    0.373889
H      -0.541069    1.819259   -0.474818
H      -0.520096    1.532033    1.284297
H      -1.879976   -0.462260    0.970240
H      -1.894583   -0.195782   -0.784479
H      -0.652813   -2.351930   -1.108574
H      -0.628185   -2.600430    0.641518
H      -3.143950   -2.420932   -1.097143
H      -3.032543   -4.890172   -1.086640
H      -1.671187   -4.849202    0.063289
H      -4.626644   -4.363197    0.727191
H      -2.189180   -4.639099    2.572542
H      -3.860624   -4.385559    3.110567
H      -3.421259   -5.888322    2.276687
