13

C       0.059190    1.489433    0.013191
C      -0.069746    0.003845    0.005124
C      -1.224027   -0.694570   -0.142393
C      -1.079943   -2.106650   -0.114342
F      -2.187112   -2.812297   -0.254682
N       0.014687   -2.763772    0.033248
C       1.186512   -2.066308    0.181698
O       2.280263   -2.513705    0.326328
O       1.094308   -0.626938    0.161981
H       0.731834    1.809907   -0.788858
H      -0.912598    1.967194   -0.117170
H       0.502643    1.820365    0.957803
H      -2.183633   -0.218298   -0.271541
