16

N      -0.051565    1.072444   -0.593594
C       0.040861   -0.097527    0.090298
O       1.046480   -0.519253    0.626262
C      -1.240377   -0.882123    0.118808
C      -2.086972   -1.327798    1.327903
C      -2.884740   -1.630343    0.046624
O      -2.474079   -0.299592   -0.500549
C      -1.602391   -2.230982   -0.598407
O      -1.517008   -2.287046   -1.974927
H       0.750218    1.680426   -0.627874
H      -0.941012    1.396168   -0.934749
H      -1.718191   -2.166230    1.921027
H      -2.480300   -0.509970    1.930306
H      -3.930957   -1.906598   -0.080232
H      -1.190779   -3.146567   -0.172077
H      -1.896360   -1.453637   -2.290227
