18

O      -0.379237    0.410441    0.911399
C      -0.173530    1.416686    0.274352
C       1.197055    1.901104   -0.081726
C       2.125473    1.997114    1.099662
N       2.282945    0.932607    0.120281
C       1.293296    2.842610   -1.256523
C       2.679146    3.354814   -1.709050
O       2.438593    2.931097   -3.065949
C       1.232832    2.243767   -2.684654
H      -1.011674    2.050142   -0.088238
H       2.896293    2.763265    1.088679
H       1.718608    1.753268    2.076892
H       1.864345    0.077662    0.488781
H       0.576541    3.659125   -1.124085
H       2.850784    4.434695   -1.638656
H       3.522360    2.814926   -1.261930
H       1.356697    1.153066   -2.713531
H       0.378330    2.530332   -3.308185
