20

C       0.063130    1.593422    0.149285
C       0.121790    0.095020   -0.008085
N      -0.616279   -0.766123    0.937599
C       0.883074   -0.806807    0.927255
C       1.356251   -1.993980    0.144675
C       1.039848   -1.804659   -1.138210
C       0.402420   -2.526514   -2.303127
C      -0.723799   -1.432274   -2.173141
C       0.292272   -0.517774   -1.392714
H       0.868538    2.080278   -0.411530
H      -0.887613    1.990806   -0.225860
H       0.159061    1.891292    1.198916
H      -0.917789   -0.183046    1.717772
H       1.406372   -0.423970    1.798354
H       1.677394   -2.919255    0.608442
H       0.950965   -2.415319   -3.244508
H       0.127135   -3.574337   -2.167229
H      -1.130011   -1.033676   -3.105494
H      -1.526428   -1.765507   -1.514016
H       0.793304    0.174723   -2.079931
