20

C      -0.136747    1.531562   -0.063942
C       0.036712    0.016798    0.013493
C       0.821275   -0.503917   -1.204815
O       0.976840   -1.907500   -1.180435
C       1.670918   -2.336716   -0.019299
C       0.929253   -1.915995    1.246232
N       0.702286   -0.473170    1.225009
C       1.088289    0.279925    2.294183
O       1.632020   -0.155453    3.291202
H       0.823409    2.056562   -0.047181
H      -0.636321    1.776665   -1.005966
H      -0.757350    1.918488    0.747981
H      -0.959330   -0.451132   -0.026021
H       0.280879   -0.266984   -2.126113
H       1.805381   -0.004567   -1.235134
H       1.742484   -3.425842   -0.082931
H       2.689983   -1.917103   -0.008622
H      -0.036110   -2.438702    1.294016
H       1.500172   -2.145702    2.146969
H       0.861729    1.350394    2.170286
