13

O       0.092161    1.483399   -0.440307
C       0.037085    0.145350    0.022872
C      -1.364448   -0.366500    0.118532
C      -2.125076   -0.768211    1.182752
O      -3.340438   -1.114696    0.721034
N      -3.313632   -0.905331   -0.678658
N      -2.169525   -0.480519   -0.990279
C      -1.850469   -0.867276    2.556442
C      -1.596943   -0.944655    3.729927
H      -0.322327    1.505877   -1.310125
H       0.625450   -0.526290   -0.620196
H       0.493241    0.137267    1.016177
H      -1.376793   -1.012424    4.767501
