23

C      -0.499345    1.654600   -0.019043
O      -0.478635    0.399809    0.622498
C      -1.296077   -0.556290    0.000693
C      -0.825530   -1.189671   -1.339495
C      -1.288072   -2.560128   -0.780518
O      -0.552231   -3.721861   -1.069833
C      -1.280200   -1.962197    0.671919
C       0.036541   -2.243750    1.401035
C      -2.476910   -2.310062    1.550909
H       0.143817    2.325627    0.555556
H      -0.119711    1.596716   -1.050218
H      -1.516221    2.077140   -0.051190
H      -2.325048   -0.171528   -0.085743
H      -1.267265   -0.841909   -2.275583
H       0.265802   -1.142609   -1.419876
H      -2.312565   -2.786200   -1.091770
H       0.367563   -3.558459   -0.837186
H       0.913868   -1.960284    0.810820
H       0.088934   -1.673104    2.331877
H       0.111061   -3.308726    1.644191
H      -2.462037   -3.369956    1.829345
H      -2.474908   -1.721310    2.475375
H      -3.421680   -2.115199    1.031505
