23

C      -0.140805    1.554327    0.231961
C      -0.061790    0.036596    0.047240
C      -1.437853   -0.635642   -0.004688
C      -1.366465   -2.155274   -0.189696
C      -2.746353   -2.820273   -0.243006
C      -2.656411   -4.329889   -0.430280
O      -3.963397   -4.905916   -0.569832
C      -4.465103   -5.596708    0.468328
O      -5.558156   -6.077602    0.461652
H       0.855778    2.005241    0.265328
H      -0.691848    2.025057   -0.589783
H      -0.654889    1.813593    1.164186
H       0.487564   -0.192790   -0.875501
H       0.524632   -0.402703    0.865209
H      -1.989014   -0.407604    0.918152
H      -2.025976   -0.198091   -0.823154
H      -0.815666   -2.383000   -1.112848
H      -0.778549   -2.592958    0.629268
H      -3.302054   -2.608232    0.679426
H      -3.337138   -2.401276   -1.066080
H      -2.113381   -4.581182   -1.346591
H      -2.130104   -4.800599    0.411195
H      -3.753541   -5.674035    1.315227
