16

C      -0.019344    1.479893    0.229067
O       1.425334    1.516127   -0.077733
C       1.223759    0.329884   -0.843980
C       0.009224   -0.052821   -0.076146
O      -0.695377   -0.890095   -0.993703
C       0.325694   -1.043152   -1.985548
C       0.867684    0.333942   -2.381589
N       2.243350   -0.195518   -2.699102
C       1.869975   -0.929177   -1.448931
H      -0.213197    1.788050    1.258025
H      -0.589501    2.086332   -0.482422
H       0.204734   -0.603937    0.849213
H       0.078823   -1.805338   -2.723480
H       0.379318    1.111409   -2.967890
H       2.188050   -0.825909   -3.505803
H       2.502359   -1.685999   -0.985134
