18

C       0.154373    1.010837    0.487666
O      -0.281917    0.191524   -0.583803
C      -1.402345   -0.563715   -0.293039
C      -1.879391   -1.492169   -1.424284
C      -2.182213   -2.582723   -0.361906
C      -1.234669   -1.840195    0.632385
O       0.107025   -2.265773    0.558856
C      -1.688281   -1.731847    2.021762
N      -2.056666   -1.651305    3.115394
H       0.989305    1.606245    0.113017
H      -0.645478    1.685604    0.827021
H       0.496955    0.408393    1.338125
H      -2.221848    0.053848    0.105966
H      -2.704577   -1.140285   -2.043918
H      -1.034063   -1.766664   -2.057422
H      -3.219914   -2.574273   -0.021978
H      -1.885163   -3.608111   -0.589816
H       0.171367   -3.134385    0.972638
