18

O      -0.151066    1.479684   -0.126563
C       0.041558    0.076419   -0.019193
C      -1.365874   -0.532131    0.099579
C      -1.444203   -1.969664    0.564352
N      -2.254542   -2.286654    1.484858
O      -0.742103   -2.938439   -0.110751
C       0.676387   -2.796152   -0.319535
C       1.071853   -1.771266   -1.350501
C       0.792694   -0.478902   -1.206861
H       0.714604    1.900193   -0.141779
H       0.595872   -0.158049    0.907208
H      -1.940587    0.060759    0.811843
H      -1.853680   -0.455313   -0.879451
H      -2.214105   -3.297435    1.638540
H       1.153630   -2.580910    0.647828
H       0.997940   -3.793046   -0.626182
H       1.588207   -2.127407   -2.236680
H       1.054059    0.240188   -1.979713
