18

O      -0.037956    1.387848    0.196030
C       0.041200   -0.006361    0.054514
C      -1.335140   -0.741361   -0.026336
N      -0.888472   -1.245219   -1.343845
C       0.266137   -0.511712   -1.393671
O       1.086196   -0.294918   -2.248067
C      -1.659327   -1.790587    0.996636
C      -2.473050   -1.418948    2.211439
C      -3.077504   -2.291789    1.143124
H       0.669083    1.767369   -0.339232
H       0.721071   -0.462178    0.787850
H      -2.148204   -0.010608   -0.110812
H      -1.381906   -1.752201   -2.065199
H      -0.871488   -2.524778    1.143201
H      -2.206370   -1.870382    3.159961
H      -2.824464   -0.395570    2.290566
H      -3.838579   -1.854429    0.504654
H      -3.228437   -3.343616    1.357625
