19

O      -0.090981    1.428434    0.019855
C       0.029903    0.008603   -0.008290
C      -1.399200   -0.542276    0.003513
O      -1.397801   -1.939016   -0.243306
C      -0.923904   -2.266881   -1.522261
C      -1.102073   -3.714737   -1.882472
C      -1.968175   -2.675845   -2.552481
C       0.273086   -1.514443   -1.951946
C       0.736145   -0.481863   -1.248666
H       0.793313    1.803224    0.076898
H       0.558158   -0.344394    0.892744
H      -1.868800   -0.397008    0.978745
H      -1.984674    0.000336   -0.752877
H      -0.322603   -4.200872   -2.458673
H      -1.561481   -4.332447   -1.119317
H      -3.000728   -2.604381   -2.230931
H      -1.791548   -2.438981   -3.595881
H       0.754508   -1.839256   -2.870247
H       1.627534    0.055460   -1.564311
