17

C      -0.065139    1.559679    0.039866
C       1.483246    1.269246    0.017613
C       1.245292    0.031882    0.914871
O       2.094011   -1.033087    0.591049
C       1.791821   -1.177212   -0.840446
C       0.518232   -2.029622   -0.902373
C      -0.529810   -1.301960   -0.459525
C       0.038238    0.030919   -0.137936
C       1.236235    0.226962   -1.111630
H      -0.477743    1.936708    0.980292
H      -0.458666    2.121716   -0.810840
H       2.290119    1.999166    0.091415
H       1.063411    0.106126    1.985942
H       2.675902   -1.550963   -1.354140
H       0.518446   -3.094542   -1.100269
H      -1.524892   -1.671050   -0.244161
H       1.013806    0.529055   -2.134680
