18

N       0.863272   -0.190881    0.989929
C      -0.202705    0.290665    0.295016
O      -0.382990    1.474230    0.073081
C      -1.246028   -0.730822   -0.173242
C      -1.551946   -0.591426   -1.697621
O      -1.519525   -1.919491   -2.231977
C      -1.864804   -2.789305   -1.161253
C      -1.014430   -2.255388   -0.007988
O       0.344046   -2.662968   -0.180250
H       1.583559    0.476238    1.220252
H       1.104442   -1.167916    0.892274
H      -2.149761   -0.473565    0.389165
H      -2.538269   -0.140584   -1.862237
H      -0.809819    0.009297   -2.226744
H      -2.940128   -2.737952   -0.925681
H      -1.605203   -3.811799   -1.444710
H      -1.316532   -2.624262    0.974205
H       0.556634   -2.521231   -1.112349
