14

O       0.288513    0.473775    1.239838
C      -0.014802    1.312384    0.421899
C       0.936095    1.715965   -0.634303
N       1.709938    1.999804   -1.444656
C      -1.324237    1.977104    0.371514
C      -2.317301    1.995214    1.501250
C      -2.715723    1.335682    0.216647
C      -2.897808    2.382917   -0.879586
O      -1.601161    2.982945   -0.591482
H      -2.087340    1.315669    2.314205
H      -2.728371    2.961137    1.780034
H      -2.950822    0.283089    0.141445
H      -2.905962    1.964920   -1.890419
H      -3.717845    3.098068   -0.757977
