21

C      -0.035865    1.538188    0.008975
C      -0.039213    0.029487    0.190532
C      -1.396690   -0.708321    0.188033
C      -0.808732   -1.485631   -1.006246
O       0.378375   -0.667304   -1.013898
C       1.369256    2.082431   -0.187450
C       1.573268    3.613861   -0.172707
C       2.526477    3.330803    1.005205
O       2.186527    1.929599    1.003877
H      -0.649030    1.799285   -0.863710
H      -0.486237    2.008826    0.892936
H       0.611197   -0.239038    1.033109
H      -1.631455   -1.291984    1.079156
H      -2.248451   -0.070550   -0.059261
H      -0.576059   -2.539030   -0.802792
H      -1.357832   -1.423523   -1.953241
H       1.840292    1.579376   -1.041930
H       2.021605    4.050574   -1.066101
H       0.676892    4.178865    0.093151
H       3.590424    3.492074    0.787973
H       2.285936    3.812012    1.960582
