17

C      -0.095275   -1.166387    0.221064
C      -0.028836    0.028871    0.105815
C       0.027424    1.453152   -0.075519
C      -0.987087    2.095354   -1.041022
C      -0.294781    3.318381   -1.632159
N       0.076209    4.354457   -0.648570
C       1.097414    3.389536   -1.113781
C       1.311652    2.245155   -0.141432
N       0.508776    2.247302    1.075964
H      -0.145812   -2.220069    0.340908
H      -1.218262    1.383171   -1.838909
H      -1.926979    2.345931   -0.538257
H      -0.551035    3.633408   -2.638683
H       0.202888    5.249018   -1.114428
H       1.928921    3.742178   -1.712670
H       2.289663    1.780595   -0.077684
H       0.001139    3.132842    1.115944
