20

C      -0.095826    1.434741   -0.240904
N      -0.226375   -0.003400   -0.359792
C      -1.022623   -0.740879    0.467466
O      -1.687441   -0.260115    1.370230
C      -1.028173   -2.220123    0.188221
C      -0.647567   -3.334517    1.212878
C      -1.111519   -4.081164   -0.070051
C      -2.293895   -3.073230   -0.138606
C      -0.274105   -3.059105   -0.892565
H       0.939517    1.727481   -0.032470
H      -0.426172    1.944117   -1.153314
H      -0.728998    1.746614    0.590847
H       0.287257   -0.484738   -1.078612
H       0.411771   -3.410026    1.473816
H      -1.288417   -3.412503    2.093225
H      -1.154545   -5.159093   -0.226038
H      -3.045642   -3.133618    0.650704
H      -2.747762   -2.908580   -1.119872
H      -0.575363   -2.907034   -1.933706
H       0.813712   -3.127482   -0.793410
