16

O      -0.062498    1.313495    0.064710
C       0.058662   -0.054830    0.058407
C       0.773979   -0.980025    1.064551
C       0.090118   -1.928290    0.050669
C       0.092970   -3.361000    0.031698
N       0.100604   -4.518075    0.021048
C      -1.176715   -0.996545   -0.091921
C      -1.092122   -0.994551   -1.631315
C       0.381262   -0.987476   -1.178479
H       0.813672    1.706693   -0.014348
H       1.868220   -0.980991    1.059146
H       0.381344   -1.000171    2.084829
H      -2.044128   -1.028566    0.567471
H      -1.445449   -1.891893   -2.145425
H      -1.447502   -0.089884   -2.129345
H       1.299493   -1.006727   -1.766934
