19

C      -0.153923    1.572420    0.037038
C      -0.009279    0.046980   -0.031387
N      -1.268792   -0.691684    0.001772
C      -2.080328   -0.702308   -1.200662
C      -1.897998   -0.816928    1.217875
C      -1.467212   -0.641784    2.525361
N      -2.488998   -0.958287    3.367954
N      -3.532571   -1.311612    2.689951
N      -3.184936   -1.223844    1.369525
H       0.831973    2.047681    0.026678
H      -0.719902    1.956728   -0.817511
H      -0.669476    1.875058    0.952870
H       0.511332   -0.241540   -0.951007
H       0.608478   -0.311670    0.797990
H      -2.659008   -1.631511   -1.264144
H      -2.779421    0.146222   -1.270333
H      -1.422171   -0.673660   -2.071861
H      -0.509506   -0.316414    2.893480
H      -3.867128   -1.450884    0.666752
