14

C       0.000643    1.485199    0.094231
C       1.296609    0.737534    0.034843
O       1.988317    0.427747    1.242919
C       1.146457   -0.405712    1.913568
C       0.010231   -0.747167    1.232004
N      -0.616475   -1.575417    2.094127
N       0.115422   -1.727504    3.230556
N       1.202003   -0.988678    3.119002
C      -0.041267   -0.035578   -0.054586
H      -0.320730    1.914836    1.036155
H      -0.246651    2.068114   -0.786492
H       1.975927    0.861891   -0.798248
H      -1.485538   -2.077217    2.012530
H      -0.400763   -0.491644   -0.969041
