18

C      -0.501280    1.457851    0.068864
C       0.031023    0.036014    0.007284
O      -0.987684   -0.883485   -0.362809
C       1.361987   -0.233820   -0.773907
C       1.822707   -1.193568    0.364405
C       0.742175   -0.560210    1.238760
C       0.871986    0.021566    2.576072
O       0.096647   -1.161418    2.336077
H       0.269371    2.161192    0.398475
H      -0.846527    1.782885   -0.920702
H      -1.350419    1.515447    0.756981
H      -1.303448   -0.630650   -1.237490
H       1.234077   -0.673584   -1.765116
H       1.988149    0.658805   -0.851259
H       1.588883   -2.237029    0.141161
H       2.857392   -1.118644    0.705017
H       1.793700   -0.127770    3.137892
H       0.298186    0.905559    2.851153
