22

C       0.255282    1.581063   -0.083870
C       0.053581    0.079811    0.058695
O       0.611661   -0.563026   -1.089586
C       1.136248   -1.864111   -0.761741
C       0.072727   -2.939544   -1.022794
C       2.379646   -2.070628   -1.622806
C       1.433389   -1.773176    0.732286
N       2.222932   -0.576741    1.086852
C       0.752273   -0.567825    1.242517
H       1.323310    1.810991   -0.074819
H      -0.174013    1.932841   -1.025910
H      -0.233810    2.115393    0.737398
H      -1.024145   -0.146194    0.134744
H      -0.234602   -2.910827   -2.071837
H       0.459393   -3.941028   -0.804802
H      -0.814003   -2.775758   -0.402211
H       3.124740   -1.311157   -1.378168
H       2.810506   -3.062723   -1.452185
H       2.123400   -1.985667   -2.682824
H       1.536104   -2.682951    1.315085
H       2.652126   -0.720566    1.997820
H       0.310909   -0.511466    2.232157
