16

O      -0.111455    1.335088   -0.005511
N       0.021983   -0.063349   -0.013587
C      -1.116503   -0.643855    0.018406
C      -1.239884   -2.158437   -0.000426
C      -2.753607   -2.385482   -0.065595
C      -3.394773   -3.542291   -0.712420
O      -3.325877   -3.451213    0.709378
C      -3.384593   -1.043394    0.022400
C      -2.462713   -0.069581    0.063114
H       0.806194    1.625297   -0.027034
H      -0.703828   -2.598347   -0.844880
H      -0.841231   -2.604160    0.915740
H      -4.391149   -3.444682   -1.143333
H      -2.767182   -4.308529   -1.167160
H      -4.459974   -0.915293    0.052197
H      -2.644318    0.993899    0.115803
