21

C      -0.583564    1.319351   -0.089179
C       0.122769   -0.019071   -0.047998
O       1.327734   -0.059719   -0.859620
C       2.120238   -0.614473    0.218875
C       2.845896   -1.874602   -0.166160
C       2.842719    0.513053    1.006525
C       1.648738    0.583966    2.011484
C       0.894096   -0.494772    1.197698
O       0.238578   -1.530713    1.862772
H       0.078388    2.135457    0.213788
H      -0.929447    1.528071   -1.106427
H      -1.457579    1.308820    0.570947
H      -0.565887   -0.816968   -0.360057
H       3.567540   -1.669299   -0.965081
H       3.394844   -2.288644    0.686316
H       2.142278   -2.630268   -0.527315
H       3.787713    0.212483    1.466646
H       3.007350    1.408458    0.404977
H       1.920258    0.212036    3.005519
H       1.151613    1.548206    2.141210
H       0.740282   -1.757533    2.652441
