21

C       0.750120   -2.194986   -1.462932
C       0.237331   -1.366826   -0.274815
C       0.922236    0.006553   -0.211867
C      -1.288839   -1.233155   -0.333876
C      -2.161935   -2.337470    0.195828
N      -2.145740   -1.045539    0.849182
C      -1.565622   -0.936755    2.180155
C      -1.769639   -0.497205   -1.492939
N      -2.122959    0.076136   -2.432942
H       1.836527   -2.312459   -1.404986
H       0.300506   -3.192540   -1.478986
H       0.516038   -1.704205   -2.413180
H       0.472453   -1.915630    0.643149
H       0.703779    0.592847   -1.110292
H       0.590234    0.585734    0.654699
H       2.007790   -0.111733   -0.143324
H      -3.081020   -2.610588   -0.314752
H      -1.632777   -3.164854    0.670170
H      -0.724147   -1.617383    2.375959
H      -1.233062    0.091163    2.348965
H      -2.353445   -1.159995    2.905886
