18

C      -0.175965    1.597053    0.074859
C      -0.027943    0.093174   -0.026880
C       0.861182   -0.558797   -1.086592
C       2.128660   -0.217994   -0.235818
N       1.052506   -0.544340    0.855378
C       1.080976   -1.765113   -0.118222
C       2.584694   -1.661458   -0.247404
C       3.634899   -2.422651   -0.908417
O       3.576897   -2.272689    0.530084
H       0.771108    2.118326   -0.093778
H      -0.897505    1.962296   -0.664005
H      -0.542627    1.874554    1.068474
H      -0.996263   -0.398678    0.131765
H       0.778580   -0.586658   -2.178975
H       2.707644    0.703451   -0.203771
H       0.427330   -2.621611    0.047449
H       3.433526   -3.427726   -1.275954
H       4.462705   -1.907312   -1.393211
