16

C       0.054631    1.367264    0.018823
O      -0.205339   -0.024985   -0.127885
C       0.518565   -0.654540   -1.065405
N       0.407589   -1.907418   -1.208797
C       1.117179   -2.520245   -2.238177
N       1.530335   -1.884345   -3.341162
N       2.158212   -2.838650   -4.056763
C       2.143973   -4.054071   -3.457292
C       1.470718   -3.891763   -2.268188
H       1.070415    1.546046    0.390674
H      -0.084332    1.902002   -0.928103
H      -0.665042    1.738208    0.749239
H       1.172612   -0.013068   -1.668069
H       2.520780   -2.604242   -4.964643
H       2.599182   -4.917134   -3.916943
H       1.263194   -4.632832   -1.514946
