20

C      -0.132687    0.875253   -1.986754
C      -0.016795   -0.283435   -1.019788
C       1.298348   -0.658893   -0.346101
C       2.589361    0.093252   -0.589832
C       0.178222   -0.059697    0.464418
O       0.374835    1.261473    0.916117
C      -0.553011   -0.905204    1.484880
O      -1.774793   -0.303201    1.893420
H       0.436305    1.745532   -1.652209
H       0.234814    0.598755   -2.980840
H      -1.178622    1.183299   -2.099780
H      -0.656723   -1.126517   -1.270911
H       1.437991   -1.728471   -0.199832
H       2.440763    1.173239   -0.546156
H       3.331349   -0.163844    0.173642
H       3.017090   -0.160168   -1.565959
H      -0.424280    1.755375    0.702504
H      -0.810283   -1.878296    1.054485
H       0.102115   -1.083555    2.351968
H      -1.531558    0.468294    2.415618
