15

O      -0.175430    1.473417    0.302343
C      -0.016538    0.069225    0.116674
C       0.585331   -0.532875    1.400797
O      -0.258461   -1.608156    1.793615
C      -1.573052   -1.254785    1.403216
C      -1.409433   -0.636416    0.003112
O      -2.437887    0.241647   -0.386083
H      -0.360261    1.858381   -0.561159
H       0.606679   -0.125655   -0.762705
H       1.594232   -0.930897    1.270987
H       0.611094    0.257272    2.166382
H      -2.190625   -2.155079    1.424313
H      -2.015649   -0.507023    2.084596
H      -1.369784   -1.427930   -0.750353
H      -2.308718    1.041669    0.140983
