23

C       0.005103    1.565605   -0.212393
C       0.034932    0.062245    0.085650
C      -1.346764   -0.584507    0.022759
C      -2.139585   -0.696799   -1.318371
C      -1.223454   -1.513725   -2.270203
C      -1.434758   -2.673111   -1.300353
C      -2.723733   -2.068070   -0.786035
C      -1.524833   -2.103975    0.131237
C      -1.297056   -2.961095    1.341622
H       1.002672    2.009223   -0.135825
H      -0.368967    1.762258   -1.223083
H      -0.649568    2.094814    0.489321
H       0.720045   -0.439003   -0.607471
H       0.451571   -0.102563    1.088444
H      -2.002306   -0.109791    0.766078
H      -2.719855    0.144716   -1.691969
H      -1.724007   -1.707644   -3.223602
H      -0.209907   -1.145092   -2.465023
H      -1.216535   -3.722783   -1.455850
H      -3.724029   -2.465192   -0.687581
H      -1.669311   -3.979133    1.182009
H      -0.231270   -3.036544    1.588075
H      -1.813165   -2.554244    2.219173
