18

C      -0.025066    1.353867   -0.384399
C       1.436053    1.598822    0.123494
C       1.139993    0.374429    0.974888
C       1.622076   -0.836978    1.862818
C       0.448554   -1.797302    1.515513
C      -0.566611   -0.646921    1.259389
C       0.160934    0.435435    2.180853
O       1.092938   -0.199816    3.059701
N       0.089409   -0.098031    0.023920
H      -0.764591    1.935791    0.178007
H      -0.213592    1.469817   -1.453153
H       2.173191    1.411356   -0.661001
H       1.661853    2.534349    0.637169
H       2.637217   -1.214611    1.965616
H       0.590859   -2.399169    0.617365
H       0.214073   -2.421148    2.379647
H      -1.632660   -0.871469    1.262358
H      -0.353753    1.298523    2.599239
