20

O      -0.055332    1.214443   -0.944209
C       0.012368    0.268854    0.109657
C      -1.308263   -0.448553    0.269121
N      -1.647818   -1.374936   -0.833236
C      -1.477244   -1.903927    0.531390
C      -0.354886   -2.895917    0.745770
C      -0.742407   -4.296520    0.232870
C       0.407974   -5.270232    0.327853
O       0.380766   -6.320285    0.915991
H      -0.329106    0.719117   -1.725420
H       0.825935   -0.450570   -0.056217
H       0.247987    0.833852    1.017738
H      -2.110799    0.195679    0.625481
H      -2.632343   -1.302906   -1.072534
H      -2.391675   -2.168022    1.063411
H       0.545248   -2.559896    0.222764
H      -0.110648   -2.944494    1.814066
H      -1.595906   -4.708680    0.779596
H      -1.019150   -4.203934   -0.826981
H       1.331798   -4.936027   -0.202317
