19

C      -0.187019    1.463021    0.042155
C      -0.065521   -0.050531   -0.151271
C       1.138462   -0.426831   -1.020757
N       1.280839   -1.864212   -1.194622
C       1.274384   -2.447044   -2.437080
O       1.137644   -1.846812   -3.475282
N       1.422709   -3.855196   -2.359575
C       1.614667   -4.737408   -3.413183
O       1.756568   -4.465039   -4.572495
H       0.705486    1.875576    0.525625
H      -0.309916    1.975272   -0.918029
H      -1.049199    1.713553    0.666651
H       0.023091   -0.542317    0.827020
H      -0.974336   -0.448550   -0.617111
H       1.036569   -0.009807   -2.025207
H       2.058580   -0.012573   -0.585981
H       1.546288   -2.409328   -0.390803
H       1.338137   -4.287166   -1.451509
H       1.631485   -5.778328   -3.026107
