22

C       0.044479    1.572930   -0.046078
C      -0.021507    0.063526   -0.006824
C       0.408240   -0.733232   -1.271655
C      -0.707914   -1.779926   -1.022010
C      -0.385237   -2.715851    0.155568
N      -0.731063   -1.666524    1.173716
C       0.393842   -0.677605    1.283145
C      -1.330531   -0.815573    0.046809
C      -2.748950   -0.343509    0.143468
H       1.086307    1.916973   -0.068093
H      -0.451051    1.975254   -0.937012
H      -0.430589    2.019804    0.834564
H       0.198955   -0.152060   -2.175948
H       1.442385   -1.092111   -1.320749
H      -1.235509   -2.183093   -1.888256
H      -1.087446   -3.552030    0.239825
H       0.634527   -3.111335    0.231860
H       1.395410   -1.122816    1.318446
H       0.257217   -0.064105    2.181235
H      -2.895696    0.277328    1.034213
H      -3.027127    0.249491   -0.735240
H      -3.438333   -1.192294    0.212289
