17

O       0.322090    1.133867   -0.615815
C       0.036087   -0.108298   -0.012504
C       0.418425   -0.173332    1.496536
O      -0.628305   -0.852418    2.197815
C      -1.737227   -0.980882    1.365173
C      -2.414170    0.279433    0.820780
C      -2.117635    1.593980    1.306887
C      -1.889382    2.707955    1.705415
C      -1.427119   -0.541648   -0.024238
H      -0.216738    1.801518   -0.171395
H       0.616253   -0.840095   -0.582810
H       1.349766   -0.719923    1.672889
H       0.532819    0.845452    1.881113
H      -2.355125   -1.834277    1.620642
H      -3.453278    0.135573    0.535744
H      -1.696315    3.682383    2.081603
H      -1.816577   -1.039943   -0.903373
