15

O       1.006603    0.998921    0.875073
C       0.425362   -0.046751    0.263420
N       0.785203   -0.595322   -0.865222
C      -0.125654   -1.626958   -1.058580
C      -0.026373   -2.498877   -2.278589
C      -1.048160   -3.538034   -2.343211
C      -1.890869   -4.393230   -2.394363
C      -1.021469   -1.676924   -0.032842
N      -0.653946   -0.641839    0.824906
H       1.744602    1.263797    0.311834
H      -0.084265   -1.869968   -3.177509
H       0.970038   -2.960320   -2.312324
H      -2.631255   -5.152125   -2.448820
H      -1.857334   -2.322948    0.168879
H      -1.092201   -0.378133    1.690261
