10

C       0.036417    1.452085    0.008762
C       0.009881    0.002637    0.010868
C      -0.019323   -1.204500    0.011602
C      -0.048773   -2.635784    0.012529
O      -1.047234   -3.317220    0.064275
C       1.286212   -3.263546   -0.057288
N       2.328145   -3.761943   -0.111787
H       1.060245    1.830577    0.086132
H      -0.404466    1.839781   -0.916050
H      -0.545201    1.849428    0.847282
