22

C       0.190279    1.361701   -0.661547
C      -0.015996    0.055350    0.108445
C      -1.315654   -0.653694   -0.273222
C      -1.552755   -1.947820    0.484865
O      -0.793847   -2.327001    1.355854
C      -2.762689   -2.779239    0.123557
C      -3.936140   -2.131404   -0.579295
C      -2.429728   -4.220389   -0.143340
N      -3.097114   -3.835326    1.094093
H       1.126653    1.846877   -0.370003
H       0.229573    1.187622   -1.742904
H      -0.623709    2.070707   -0.472062
H       0.825135   -0.623862   -0.067274
H      -0.019349    0.246561    1.186474
H      -2.182143    0.001561   -0.103249
H      -1.342445   -0.876731   -1.349506
H      -3.654617   -1.725691   -1.555998
H      -4.723254   -2.873322   -0.730813
H      -4.360353   -1.317727    0.018863
H      -3.040771   -4.767565   -0.856954
H      -1.383606   -4.510048   -0.100314
H      -2.393093   -3.789839    1.832204
