20

C      -0.255815    1.582828   -0.102053
C       0.022739    0.086688   -0.012359
C       1.060353   -0.566058   -0.949765
C       2.472248   -0.235190   -0.598495
O       2.829513    1.049864   -0.166382
C       1.761617   -1.230029    0.270556
C       0.793190   -0.511299    1.186799
C       1.013099    0.059791    2.532423
N       0.189509   -1.156943    2.345677
H       0.665180    2.157464    0.002229
H      -0.710636    1.832390   -1.067171
H      -0.959561    1.896679    0.678297
H      -0.917455   -0.471095   -0.111489
H       0.813278   -1.005066   -1.909381
H       3.198422   -0.687310   -1.276470
H       3.471016    0.954119    0.545198
H       2.101287   -2.249460    0.410467
H       1.950861   -0.103459    3.058147
H       0.515897    0.995516    2.776076
H      -0.798643   -0.919075    2.403261
