18

C      -0.042014    1.568997   -0.012803
C       0.004879    0.070340   -0.011354
C       0.625093   -0.882765   -1.119370
C       1.525761   -1.517606   -0.026336
C       0.639098   -0.870376    1.061086
O      -0.605805   -1.583485    1.234497
C      -1.190877   -0.928579    0.086819
C      -0.751316   -1.590031   -1.238637
H       0.965792    1.998681   -0.050009
H      -0.593645    1.949085   -0.880515
H      -0.534445    1.950614    0.889042
H       1.101066   -0.529395   -2.034505
H       1.625799   -2.606262   -0.000769
H       2.521902   -1.061714   -0.028255
H       1.077153   -0.573416    2.017236
H      -2.242245   -0.678990    0.250009
H      -1.327235   -1.184139   -2.077509
H      -0.774325   -2.682600   -1.278580
