18

O      -0.043632    1.430703    0.056697
C       0.061232    0.049121    0.016232
C       1.044365   -0.820861    0.805091
N       0.682356   -1.931834   -0.151774
C      -0.752202   -2.201930    0.189518
C      -1.395384   -2.601845   -1.150400
C      -1.151224   -1.123305   -1.504906
C      -1.288400   -0.728907    0.011140
C       0.350298   -0.864473   -1.225659
H       0.828502    1.808092   -0.101030
H       2.091483   -0.533851    0.659831
H       0.861041   -1.039606    1.862693
H      -0.869698   -2.787487    1.101089
H      -0.898281   -3.382529   -1.732676
H      -2.461235   -2.821158   -1.044068
H      -1.633007   -0.599097   -2.328179
H      -2.196769   -0.371667    0.490010
H       1.125455   -0.723353   -1.977738
