22

O       0.393130    0.881128   -0.046063
C      -0.299624   -0.276406    0.375647
C      -1.806324   -0.029492    0.382833
O      -2.249783    0.437494   -0.885029
C      -2.510253   -0.581461   -1.835152
C      -3.017631    0.089481   -3.106101
N      -3.287613   -0.915781   -4.124359
C      -4.647188   -1.450576   -4.161119
C      -4.170293   -0.509482   -5.210871
H      -0.114218    1.227172   -0.791057
H      -0.059195   -1.142808   -0.262852
H       0.039863   -0.516641    1.389593
H      -2.356034   -0.934243    0.683561
H      -2.037556    0.772183    1.092055
H      -1.611629   -1.170365   -2.066079
H      -3.269138   -1.277856   -1.443623
H      -3.903279    0.702039   -2.861308
H      -2.246128    0.769434   -3.484926
H      -4.733871   -2.513222   -4.367901
H      -5.366147   -1.064798   -3.439405
H      -4.572894    0.502063   -5.189213
H      -3.901290   -0.871796   -6.198877
