15

N       0.115865    1.322527    0.123431
C      -0.030876   -0.029500    0.039089
C      -1.150270   -0.782367    0.022882
C      -0.808822   -2.206105   -0.008305
O      -1.531105   -3.167407   -0.032252
N       0.632896   -2.251818   -0.011021
C       1.194043   -0.910977    0.024777
C       1.443218   -3.370073   -0.043785
O       1.088020   -4.518192   -0.075120
H       0.990418    1.730616   -0.165003
H      -0.692877    1.898112   -0.048774
H      -2.175732   -0.444374    0.030320
H       1.821623   -0.705829   -0.853857
H       1.807637   -0.743969    0.919926
H       2.514656   -3.071469   -0.037703
