21

C      -0.086308    0.759831    0.904063
O       0.168956   -0.426472    0.185118
C       0.024058   -0.265317   -1.213564
C       0.296694   -1.583468   -1.929316
N      -0.792355   -2.554600   -1.834961
C      -0.724312   -3.562236   -2.887011
C      -0.877358   -3.168050   -0.511239
C      -2.156300   -3.860455   -0.313808
N      -3.156097   -4.415004   -0.147412
H       0.605354    1.564372    0.610133
H      -1.115993    1.116255    0.749709
H       0.058206    0.537611    1.963658
H      -0.991200    0.082196   -1.461111
H       0.739285    0.492405   -1.575400
H       0.425297   -1.350899   -2.991227
H       1.261338   -1.991318   -1.572361
H       0.192594   -4.179228   -2.837795
H      -1.586799   -4.230029   -2.811726
H      -0.758107   -3.074865   -3.865240
H      -0.063875   -3.896967   -0.326085
H      -0.782635   -2.387444    0.246581
