17

O       0.005616   -0.022972   -0.046903
C      -0.002543    1.179743   -0.022540
N      -1.101574    1.994631    0.105431
C      -0.805012    3.397084    0.080915
C      -1.620942    4.376790   -0.716572
C      -1.644267    4.413671    0.801846
C       0.704192    3.408626    0.053782
C       1.438121    2.728303    1.146781
N       1.173425    2.019736   -0.129717
H      -2.025092    1.604873    0.194885
H      -1.098146    5.168079   -1.244734
H      -2.501727    4.003141   -1.227986
H      -2.543121    4.067904    1.302228
H      -1.138705    5.227677    1.310679
H       1.195270    4.166882   -0.547859
H       2.484121    2.958756    1.320951
H       0.880042    2.411191    2.023839
