15

C      -0.132528    1.363965   -0.056749
N      -0.083257   -0.077863    0.133805
C      -1.119371   -0.756589   -0.001281
O      -2.442226   -0.342833   -0.308856
C      -2.917921   -1.689471   -0.053227
C      -2.347050   -2.583594   -1.085832
O      -2.108615   -2.180436   -2.386165
C      -1.484113   -2.191096    0.133999
H       0.507718    1.633202   -0.904072
H      -1.139464    1.758260   -0.235784
H       0.287266    1.853649    0.828087
H      -3.815565   -1.788969    0.543350
H      -2.667740   -3.620713   -1.044268
H      -2.180034   -1.216836   -2.402198
H      -1.045263   -2.909018    0.811378
