15

C       1.406529   -0.469747    0.239121
C       0.586634    0.362508   -0.039412
C      -0.427752    1.356626   -0.378496
O      -0.348261    2.545840    0.407249
C       0.666007    3.380299    0.085130
C       1.726498    3.352052   -0.783200
N       2.432590    4.538129   -0.685778
C       1.814421    5.253084    0.216783
N       0.723044    4.592781    0.724843
H       2.139037   -1.199330    0.483277
H      -0.365989    1.617470   -1.444008
H      -1.426821    0.956366   -0.184429
H       2.034851    2.558902   -1.443592
H       2.092134    6.240519    0.552629
H       0.069642    4.912484    1.420028
