16

O       0.261102    1.424987   -0.108526
C       0.121423    0.057796   -0.052221
C       0.407284   -0.948040    1.089804
C      -1.067038   -0.968474    1.594239
C      -1.158144   -0.885888    0.062132
C      -1.855353   -0.913576   -1.271281
C      -0.807397   -0.902210   -2.111070
C       0.437544   -0.895089   -1.213000
N       0.020375   -1.868632   -0.084004
H       0.089165    1.798236    0.763607
H       1.319804   -1.119488    1.661622
H      -1.395914   -1.907813    2.045688
H      -1.418108   -0.105516    2.165690
H      -2.913580   -0.926272   -1.483313
H      -0.808231   -0.929595   -3.191281
H       1.423047   -1.016334   -1.665097
