19

C       0.135720    1.535691    0.187378
C      -0.019460    0.029903   -0.045535
C       0.652210   -0.470696   -1.332090
C       0.023880    0.095514   -2.609105
N       2.152894   -0.376744   -1.280291
C       2.338592   -1.832839   -1.525763
C       0.818199   -2.004374   -1.397200
O       0.066027   -2.931409   -1.349298
H       1.193953    1.814789    0.178019
H      -0.381875    2.126747   -0.574695
H      -0.278851    1.819601    1.159230
H       0.425066   -0.508307    0.799073
H      -1.078908   -0.251521   -0.076178
H       0.159463    1.180621   -2.660485
H       0.477472   -0.344073   -3.503695
H      -1.049515   -0.114904   -2.638011
H       2.538748    0.201921   -2.017951
H       2.712831   -2.111674   -2.520091
H       2.944492   -2.347737   -0.772063
