13

N       0.076709    1.440081    0.066058
C      -0.020881    0.052900   -0.040510
C      -1.180868   -0.632810   -0.131129
O      -1.186816   -1.989451   -0.324358
C      -0.038916   -2.715998   -0.421901
O      -0.065489   -3.903683   -0.593727
C       1.183711   -1.880290   -0.287814
O       2.322183   -2.572970   -0.359962
N       1.191834   -0.606478   -0.114053
H       0.926206    1.723458    0.535164
H      -0.735814    1.891427    0.461606
H      -2.177644   -0.220291   -0.079532
H       3.044276   -1.933928   -0.267795
