21

O      -0.028430    1.420588    0.111624
C       0.028671    0.015802   -0.016575
C       1.064473   -0.580925    0.938647
C       1.448813   -2.006892    0.527541
C       0.197832   -2.774327    0.085268
C      -0.704032   -1.871269   -0.752494
C      -1.378142   -0.638280   -0.072506
C      -1.543943   -0.036985   -1.498536
C      -0.099676   -0.609178   -1.462256
H       0.869464    1.761857    0.050263
H       1.958443    0.057597    0.951402
H       0.657063   -0.554480    1.957417
H       2.142705   -1.952305   -0.320118
H       1.979846   -2.524347    1.332861
H       0.482598   -3.664498   -0.487041
H      -0.364361   -3.135650    0.957192
H      -1.392976   -2.440488   -1.383120
H      -2.112421   -0.656365    0.736459
H      -2.245441   -0.557866   -2.155870
H      -1.641972    1.044373   -1.564791
H       0.639182   -0.592252   -2.267064
