18

C      -0.005061    1.561360   -0.052609
C       0.035723    0.035714    0.048148
C       0.789651   -0.633805   -1.125303
O       1.356373   -1.852027   -0.634378
C       1.524729   -1.723805    0.752480
C       2.271079   -0.510466    1.276378
C       0.758976   -0.524988    1.266559
C       1.587796   -2.980767    1.446875
N       1.645394   -3.974936    2.034342
H       1.005000    1.984036   -0.035474
H      -0.488279    1.880577   -0.982027
H      -0.565754    1.997191    0.779458
H      -0.990503   -0.349468    0.076975
H       0.142431   -0.886916   -1.968582
H       1.585896    0.027192   -1.496275
H       2.760558   -0.610237    2.238034
H       2.813965    0.085315    0.550765
H       0.235019   -0.570108    2.213534
