15

C       0.005678    1.371259    0.007315
O      -0.038641   -0.062019    0.003481
C      -1.261958   -0.584995    0.011286
N      -2.377601    0.032843    0.021617
C      -3.400993   -1.020330    0.026323
C      -2.658686   -2.359745    0.016787
N      -3.188263   -3.512267    0.017508
N      -1.318451   -1.972646    0.007652
H       1.063864    1.632132   -0.000697
H      -0.498561    1.770553   -0.876118
H      -0.483763    1.765341    0.901358
H      -4.041849   -0.943696    0.911537
H      -4.055221   -0.938571   -0.848591
H      -2.489258   -4.256670    0.010012
H      -0.517644   -2.581177   -0.000106
