16

C       0.049015    1.535924    0.091835
C       0.067841    0.041323   -0.013668
C      -0.959005   -0.871916    0.743889
N      -1.508806   -2.037365    0.067382
C      -0.496959   -2.630691   -0.421543
N       0.794750   -1.996132   -0.188569
C       0.490129   -1.065191    0.964113
C       0.720295   -0.771458   -1.057786
N       1.203538   -0.520934   -2.188073
H       1.046745    1.949557   -0.083679
H      -0.626874    1.965168   -0.654158
H      -0.290256    1.859869    1.080219
H      -1.596200   -0.358040    1.452336
H      -0.542947   -3.515946   -1.045060
H       1.103557   -1.041825    1.855570
H       1.676995   -1.338430   -2.576863
