15

N       0.030752    1.363451    0.159507
C      -0.062110   -0.013512    0.086345
C      -1.182725   -0.745925   -0.075814
C      -1.135521   -2.192305   -0.039080
C       0.198138   -2.749893    0.161613
C       1.247878   -1.935288    0.295461
O       1.170583   -0.572091    0.267484
N      -2.230700   -2.865292   -0.187873
O      -1.978457   -4.257742   -0.129454
H       0.915635    1.727863   -0.165887
H      -0.759083    1.853171   -0.233586
H      -2.134354   -0.252704   -0.227307
H       0.336098   -3.820086    0.197333
H       2.271375   -2.253977    0.443241
H      -2.861486   -4.619066   -0.249214
