13

C       0.067431    1.444116   -0.008548
C       0.031135   -0.045937   -0.028899
N       0.008813   -0.699801   -1.137894
C      -0.023180   -2.073285   -1.029612
O      -0.045387   -2.695335   -2.214569
N      -0.034303   -2.801473    0.037792
O      -0.010366   -2.095137    1.248155
C       0.022455   -0.734573    1.292937
O       0.042996   -0.168134    2.353710
H       0.957374    1.787372    0.529868
H       0.064599    1.835486   -1.025467
H      -0.790262    1.830134    0.552472
H      -0.067198   -3.648091   -2.044100
