18

O      -0.503319    1.197875    0.235047
C      -0.053019   -0.100142   -0.021014
C       0.877757   -0.112596   -1.221765
O       1.204895    0.902414   -1.784602
C       0.672717   -0.700773    1.171993
C       0.722449   -2.183925    1.586950
C       0.693642   -1.726996    3.084653
C       0.643988   -0.266920    2.608825
N       1.781545    0.049068    1.750889
H       0.043935    1.777784   -0.317240
H      -0.909265   -0.755214   -0.258563
H       1.259658   -1.105693   -1.536839
H      -0.177138   -2.740013    1.310003
H       1.598300   -2.746829    1.247037
H      -0.216741   -2.048206    3.595351
H       1.555704   -1.991332    3.706000
H       0.108978    0.558046    3.062491
H       2.596669   -0.530897    1.944774
