17

O      -0.797409    0.933767    0.601778
C       0.005695    1.092160   -0.278039
C       1.242988    1.957811   -0.170922
C       1.388318    2.892091   -1.382975
O       0.339904    3.839816   -1.480432
C       0.779640    5.083149   -0.916368
C       2.269238    5.178001   -1.252711
C       2.687350    3.709607   -1.294471
O       3.797345    3.252765   -1.246040
H      -0.108852    0.582467   -1.263747
H       1.208172    2.512356    0.771110
H       2.125707    1.303084   -0.154015
H       1.394490    2.294580   -2.304144
H       0.170159    5.872402   -1.359923
H       0.619086    5.093252    0.171587
H       2.425607    5.604206   -2.250811
H       2.874860    5.743242   -0.542368
