17

O      -0.040257    0.062199   -0.517288
C       0.026728    1.184473   -0.083173
C       1.271818    1.983743   -0.002946
C       1.158936    3.488337   -0.074670
C       1.485799    2.855077    1.239000
C       0.742248    2.880759    2.589912
C       2.118206    3.019842    3.321937
C       2.813594    2.964887    1.947370
O       3.949450    2.995030    1.569994
H      -0.879480    1.713625    0.295720
H       2.159856    1.511731   -0.409790
H       1.952717    4.020992   -0.586683
H       0.164349    3.909580   -0.189977
H       0.072388    3.732797    2.721380
H       0.201371    1.965143    2.835399
H       2.277533    3.960961    3.855080
H       2.389923    2.195020    3.986090
