15

O       0.041119    1.400773   -0.155863
C       0.013218    0.013406    0.013113
C      -0.460905   -0.852701   -1.118804
C      -1.332012   -0.639317    0.118795
N      -1.515823   -1.735049    1.021861
C      -0.484298   -2.232147    1.559259
O       0.810842   -1.839686    1.436442
C       1.044074   -0.492134    1.005384
H       0.718375    1.611858   -0.808595
H      -0.767114   -0.344818   -2.026792
H      -0.024285   -1.836361   -1.257038
H      -2.206386   -0.011059   -0.007386
H      -0.551321   -3.110693    2.196792
H       2.058784   -0.483635    0.592914
H       1.019477    0.171684    1.878666
