13

C       0.091503    1.443635    0.144977
N      -0.016797    0.001815    0.134042
C      -1.140560   -0.587683   -0.037705
C      -2.476303   -0.029494   -0.246943
N      -3.539122   -0.733853   -0.408802
O      -3.438580   -2.107485   -0.387689
N      -2.225648   -2.764814   -0.197044
C      -1.177116   -2.045418   -0.037455
H       0.801625    1.745174   -0.634120
H      -0.838661    2.007347   -0.001811
H       0.532216    1.752270    1.100338
H      -2.655866    1.039586   -0.279059
H      -0.248847   -2.591296    0.108620
