15

C       0.072194    1.383223    0.292626
C       0.116195   -0.105965    0.027933
C       0.582315   -0.614385   -1.295799
N       1.438776   -0.773714   -0.120781
C      -0.868234   -0.991431    0.762610
O      -1.030370   -2.156924    0.474023
C      -1.620485   -0.380232    1.846862
C      -2.245908    0.106264    2.753521
H       0.801642    1.900713   -0.337991
H      -0.915749    1.800061    0.073154
H       0.300652    1.609783    1.338755
H       0.158757   -1.541565   -1.667361
H       0.839952    0.128366   -2.046578
H       2.159603   -0.054153   -0.115063
H      -2.805238    0.522598    3.556027
