17

C      -0.027459    1.549232    0.065657
C       1.517494    1.443551   -0.000368
C       2.017099    0.843746    1.363037
O       0.887464    0.590933    2.234104
C       0.560968   -0.526512    1.371860
C      -0.016160    0.000342    0.008923
C       1.320326    0.111369   -0.806204
O       2.237491   -0.860390   -0.358257
C       2.076667   -0.680651    1.014225
H      -0.462503    2.017218    0.947543
H      -0.442387    1.984293   -0.846314
H       2.129638    2.255049   -0.392601
H       2.826749    1.379494    1.857531
H      -0.019740   -1.299127    1.874776
H      -0.865816   -0.563753   -0.374453
H       1.279857    0.147379   -1.892969
H       2.705710   -1.345339    1.600655
