11

F       0.042664    0.034152    0.002686
C      -0.028386    1.359863    0.010894
C      -1.218211    2.002503    0.030389
C      -1.235999    3.454774    0.038541
O      -2.209914    4.181694    0.055691
N       0.062886    4.005727    0.024169
N       1.236464    3.376676    0.004965
C       1.206815    2.075406   -0.001786
H      -2.162527    1.474754    0.040202
H       0.114244    5.016399    0.029049
H       2.154666    1.551972   -0.017386
