20

C       0.036023    1.507000   -0.324962
N      -0.025764    0.115377    0.109348
C      -1.167645   -0.518745    0.815874
C      -0.172175   -1.692224    1.048422
C       0.818312   -0.497591    1.166227
C       0.545553    0.254301    2.549721
C      -0.591358   -0.431731    3.348428
C      -1.400286    0.233584    2.206443
O      -0.415858    1.313438    2.248315
H       0.831025    2.059256    0.183576
H       0.226262    1.545509   -1.406669
H      -0.896065    2.040998   -0.120802
H      -2.084683   -0.666256    0.239569
H      -0.311827   -2.375830    1.881313
H      -0.003782   -2.248633    0.127484
H       1.880022   -0.624023    0.938995
H       1.441772    0.625523    3.050656
H      -0.610336   -1.505625    3.520809
H      -0.762673    0.098284    4.287528
H      -2.421268    0.584398    2.369153
