14

C       0.010765    1.522365    0.008476
C       1.547774    1.464000   -0.023855
O       2.091347    1.168505    1.285720
C       1.767455   -0.236776    1.151356
C       0.270999   -0.492373    1.400630
N      -0.090497    0.016223    0.025975
C       1.399426   -0.042612   -0.337680
H      -0.452741    2.036761    0.855195
H      -0.414254    1.899904   -0.927988
H       2.136285    2.213085   -0.558336
H       2.536189   -0.882990    1.581006
H       0.032623   -1.559834    1.462638
H      -0.194376    0.036487    2.237354
H       1.736040   -0.600967   -1.208661
