17

C      -0.004168    1.458012   -0.016872
C       0.034650   -0.040092   -0.073733
C       0.560248   -0.975798   -1.186355
C       0.065042   -1.958671   -0.105016
C       0.072870   -3.394183   -0.096381
N       0.069813   -4.551363   -0.069297
C       0.517646   -1.002934    1.068263
N      -0.807840   -0.947161    1.752362
C      -1.136974   -1.016591    0.298107
H       1.003371    1.880583   -0.091817
H      -0.600672    1.867381   -0.839014
H      -0.447009    1.786260    0.928014
H       0.006742   -0.979015   -2.129350
H       1.638106   -0.965560   -1.370027
H       1.474668   -1.014723    1.591288
H      -1.016821   -1.834582    2.217073
H      -2.153078   -1.044667   -0.097278
