27

C      -0.023831    1.472076   -0.564808
C      -0.070164    0.161578    0.234611
C      -1.431334   -0.535195    0.218695
C      -2.485213    0.247776    0.990823
C      -1.864939   -1.247770   -1.047612
C      -1.507101   -2.066732    0.177359
C      -0.220498   -2.880976    0.137760
C      -2.627087   -2.795916    0.920632
C      -3.157801   -4.041311    0.195399
H       0.986405    1.893687   -0.555162
H      -0.307170    1.303616   -1.609202
H      -0.697331    2.231933   -0.157513
H       0.702810   -0.501793   -0.159426
H       0.211629    0.364270    1.277239
H      -2.498057    1.294468    0.670164
H      -3.496112   -0.134899    0.840095
H      -2.279127    0.238843    2.068228
H      -2.909787   -1.179121   -1.337651
H      -1.180142   -1.268012   -1.890931
H       0.527860   -2.463129   -0.537844
H       0.232231   -2.960403    1.133793
H      -0.420532   -3.899118   -0.211411
H      -2.261561   -3.085602    1.915638
H      -3.469285   -2.123232    1.096746
H      -3.987995   -4.487066    0.752630
H      -3.523858   -3.785569   -0.804610
H      -2.391640   -4.813674    0.079976
