20

C      -0.125038    1.422939    0.449981
C       0.070947   -0.048435    0.145135
C      -1.162644   -0.763847   -0.369481
C       1.429734   -0.494391   -0.378694
C       1.005341   -0.849277    1.012577
O       1.726933   -0.211553    2.048505
C       1.118435   -0.231997    3.267750
N       1.890085    0.441909    4.173056
O       0.051873   -0.747359    3.499634
H       0.784352    1.876692    0.850936
H      -0.407442    1.970903   -0.456019
H      -0.922873    1.561591    1.188272
H      -1.505693   -0.324722   -1.313698
H      -0.966298   -1.825498   -0.550193
H      -1.982293   -0.694147    0.354085
H       1.482777   -1.286795   -1.117922
H       2.200224    0.263575   -0.472266
H       0.735508   -1.871343    1.255124
H       2.852244    0.625902    3.944591
H       1.653694    0.306830    5.140931
