10

N       0.036826    1.331834    0.009324
C       1.276029    1.875219   -0.000000
C       2.112773    0.771672   -0.013841
N       3.401325    0.301165   -0.028546
N       3.424998   -0.935007   -0.036070
O       1.964986   -1.464763   -0.024679
C       1.262291   -0.349197   -0.011830
N      -0.024155   -0.039132    0.002352
H      -0.835488    1.835071    0.020673
H       1.438378    2.939815    0.004170
