17

O      -0.126362   -0.095383   -0.342097
C      -0.069999    1.075651   -0.149527
C      -1.173087    2.195656    0.158255
C      -0.036901    2.850589    0.975604
C       1.014925    4.042428    1.084920
C       2.023451    2.796181    1.131935
C       1.559433    2.123267    2.427047
C       0.230582    2.160052    2.329744
C       1.015617    2.176693    0.084127
H      -1.447568    2.729584   -0.755516
H      -2.073938    1.855627    0.674720
H       1.106643    4.653727    0.182452
H       0.970918    4.661658    1.983525
H       3.088810    2.912866    0.937269
H       2.196498    1.755983    3.218558
H      -0.533997    1.819181    3.014140
H       1.087508    2.713579   -0.872087
