13

N      -0.076819    1.305885    0.010412
C       0.000741    0.034887    0.003299
N       1.114803   -0.808557   -0.006737
C       0.758847   -2.156814   -0.012117
N       1.469689   -3.208547   -0.021252
C      -0.732189   -2.144877   -0.004574
C      -1.163891   -0.869852    0.004324
C      -1.514121   -3.327979   -0.006919
N      -2.168399   -4.282137   -0.008695
H       0.843956    1.748326    0.008150
H       2.067196   -0.483452   -0.009815
H       2.469761   -3.003224   -0.025167
H      -2.180414   -0.507552    0.011327
