18

C      -0.004079    1.477192   -0.018555
C       0.040790   -0.021562   -0.088298
C       0.559196   -0.963382   -1.201290
C       0.073188   -1.960730   -0.122581
C       0.078396   -3.461675   -0.105883
C       0.511578   -1.003708    1.035280
O      -0.778744   -1.037342    1.718238
C      -1.103720   -1.017622    0.294671
H       0.999671    1.909519   -0.093137
H      -0.608237    1.895717   -0.830843
H      -0.443458    1.793630    0.933216
H       0.004866   -0.955934   -2.145621
H       1.636273   -0.941928   -1.397613
H       1.095841   -3.857389   -0.196405
H      -0.348463   -3.826029    0.834378
H      -0.513006   -3.871137   -0.932060
H       1.422406   -0.999098    1.636023
H      -2.153259   -1.029901   -0.003387
