14

C      -0.116288    1.591909    0.058437
C      -0.075257    0.090118    0.001972
O       0.950849   -0.558184   -0.020448
C      -1.409669   -0.641290   -0.027527
N      -2.497292    0.015145   -0.005446
N      -1.225141   -2.025534   -0.078104
C      -2.211783   -2.975288   -0.114927
O      -3.401401   -2.746742   -0.108635
H       0.901110    1.982845    0.068534
H      -0.673180    1.983333   -0.797625
H      -0.663683    1.916904    0.947961
H      -3.299589   -0.618164   -0.030210
H      -0.251366   -2.307511   -0.086835
H      -1.795426   -3.998907   -0.151896
