20

O      -0.033786    1.442144   -0.026834
C       0.033041    0.023211    0.008127
C      -1.389660   -0.523989   -0.013570
C      -2.148936   -0.123786   -1.288744
C      -3.537215   -0.764875   -1.307434
O      -3.470411   -2.176956   -1.183576
C      -2.850732   -2.575532    0.025556
C      -1.415312   -2.053054    0.134990
H       0.862666    1.786007   -0.073186
H       0.591103   -0.370200   -0.858089
H       0.549395   -0.327021    0.917117
H      -1.915607   -0.085230    0.847492
H      -2.230437    0.964871   -1.356379
H      -1.588564   -0.467079   -2.168830
H      -4.153767   -0.345715   -0.492251
H      -4.053717   -0.567194   -2.251359
H      -3.440741   -2.217838    0.888447
H      -2.874334   -3.669368    0.035641
H      -0.810752   -2.513080   -0.657845
H      -0.984003   -2.362054    1.095215
