20

C      -0.116809    1.654700    0.072546
C       0.021150    0.128672   -0.007305
C      -1.331960   -0.580868   -0.012399
O      -1.984897   -0.237699   -1.230952
N       0.755519   -0.285292   -1.199139
C       2.087570   -0.500360   -1.216354
O       2.810378   -0.401075   -0.232116
C       2.701402   -0.900517   -2.564132
O       4.072870   -1.113589   -2.412833
H       0.871013    2.121232    0.053971
H      -0.705443    2.034982   -0.766476
H      -0.616077    1.946279    1.002465
H       0.598482   -0.225942    0.850855
H      -1.176571   -1.666969    0.058040
H      -1.917893   -0.258580    0.860676
H      -2.802944   -0.738100   -1.294679
H       0.219483   -0.353623   -2.051370
H       2.195331   -1.807568   -2.932252
H       2.499350   -0.102216   -3.296999
H       4.238045   -0.928302   -1.471627
