15

O      -0.093964    1.364420    0.010730
C       0.022366    0.007429    0.002605
C       1.251790   -0.579206   -0.007690
C       1.659185   -1.979623   -0.017494
O       2.855950   -2.263351   -0.025900
C       0.673623   -3.075144   -0.018537
C      -0.679028   -3.052982   -0.010713
C      -1.572665   -1.931263    0.000955
C      -1.276371   -0.610710    0.006736
H       0.785381    1.760132    0.007866
H       2.116525    0.083716   -0.009036
H       1.165297   -4.044553   -0.027020
H      -1.173851   -4.021566   -0.013560
H      -2.629443   -2.184312    0.005668
H      -2.095949    0.100982    0.015541
