17

N       0.045523   -1.160614   -0.119858
C       0.047441   -0.005809   -0.031178
C       0.021330    1.411296    0.101208
N       0.212170    2.319361   -1.070787
C       1.148128    2.406246    0.061353
C       0.474442    3.262398    1.144391
C      -0.681544    2.232072    1.171870
C      -2.153086    2.439596    1.335203
C      -1.366864    1.678623    2.382309
H       0.666331    1.775771   -1.806130
H       2.205131    2.211686   -0.067674
H       1.039210    3.285278    2.079315
H       0.222917    4.278351    0.831566
H      -2.494459    3.440080    1.579101
H      -2.823706    1.881609    0.690733
H      -1.503624    0.603463    2.440621
H      -1.176587    2.158717    3.336751
