16

C      -0.333244    1.334912   -0.137668
N      -0.086453   -0.111023   -0.044563
C       0.167622   -0.712023    1.221937
C      -0.011949    0.190321    2.430930
O       0.525110   -1.855859    1.328695
C      -0.070895   -0.894109   -1.202162
O      -0.261993   -2.085182   -1.250939
C       0.317852   -0.233727   -2.540943
O       0.890733    0.812548   -2.682049
H       0.582299    1.917716   -0.005787
H      -0.748255    1.576644   -1.112047
H      -1.062592    1.631461    0.617543
H      -1.053245    0.510491    2.539706
H       0.275665   -0.389797    3.306650
H       0.606955    1.090167    2.372096
H       0.082882   -0.922974   -3.376655
