20

C       0.015595    1.535139    0.060967
C      -0.012713    0.034205    0.012989
C      -0.076992   -0.624420   -1.150432
N      -0.052449   -2.023670   -1.252627
C       0.284489   -2.790676   -0.058257
C      -0.394648   -2.176716    1.167273
C       0.023204   -0.707959    1.328962
C      -0.260882   -2.636223   -2.461661
O      -0.495500   -2.065818   -3.504937
H       0.920445    1.900769    0.565198
H      -0.009257    1.972241   -0.940841
H      -0.836835    1.932948    0.627456
H      -0.148988   -0.131038   -2.111373
H      -0.029590   -3.826864   -0.212096
H       1.374434   -2.789839    0.086167
H      -1.480982   -2.239956    1.038530
H      -0.136877   -2.756881    2.058516
H       1.030243   -0.643501    1.767653
H      -0.639369   -0.210798    2.049206
H      -0.189134   -3.737809   -2.376242
