17

O       0.011560    0.002911   -0.109500
C      -0.005727    1.201092    0.015719
C      -1.286402    2.047671    0.101712
C      -0.901383    3.362373    0.774569
N      -0.108823    2.969403    1.998960
C       1.112580    3.167384    1.183156
C       0.398934    3.990640    0.096388
N       1.041873    3.194663   -0.954019
C       1.236777    2.086329    0.035208
H      -1.702121    2.198951   -0.902337
H      -2.028234    1.501140    0.688719
H      -1.747858    4.026054    0.958481
H      -0.155935    3.714236    2.690367
H       2.038084    3.437402    1.690252
H       0.422227    5.077435   -0.011470
H       0.482562    2.960170   -1.772309
H       2.158050    1.511847   -0.069577
