18

O       0.306062    1.047234   -0.424100
C       0.016446   -0.274623   -0.079825
C       0.023380   -0.681203    1.450589
N      -1.390544   -1.104556    1.370749
C      -1.447824   -0.729797   -0.050641
C      -2.598605    0.002784   -0.678119
C      -2.245697   -1.407696   -1.114590
C       1.006373   -1.765360    1.784373
O       0.703834   -2.927643    1.907181
H      -0.356920    1.612607   -0.010386
H       0.672410   -0.898863   -0.693004
H       0.195804    0.184289    2.104845
H      -1.444421   -2.111874    1.510686
H      -3.487077    0.138534   -0.071065
H      -2.375830    0.815890   -1.362082
H      -1.791365   -1.549677   -2.090166
H      -2.909332   -2.210197   -0.808237
H       2.061181   -1.426805    1.884423
