16

N       0.037861    1.223452   -0.010011
C      -0.023625   -0.024826    0.056434
O       1.003272   -0.972557    0.179224
C       0.032299   -2.040234   -0.028788
C      -0.951173   -2.074313    1.079178
C      -1.119893   -1.047004   -0.050664
C      -1.916911   -1.403970   -1.256163
C      -1.339830   -2.419598   -1.914837
C      -0.022275   -2.880578   -1.287972
H       1.003780    1.550708    0.048610
H      -1.681704   -2.875783    1.069389
H      -0.641369   -1.733378    2.061037
H      -2.838824   -0.914816   -1.545570
H      -1.749842   -2.897587   -2.799227
H       0.834272   -2.659636   -1.936111
H      -0.002880   -3.958467   -1.092256
