14

O       0.715496    1.355321   -0.633919
C       0.140227    0.173157   -0.096950
C       0.167626   -0.985591   -1.132803
C      -0.461902   -0.515705   -2.429062
O      -1.644432   -0.545356   -2.654484
C       0.479213    0.021041   -3.433742
N       1.232821    0.408125   -4.220795
C       0.769712   -0.241241    1.155297
C       1.330753   -0.586883    2.160234
H       1.675260    1.262883   -0.617465
H      -0.909863    0.428170    0.085876
H       1.201192   -1.305075   -1.295136
H      -0.416894   -1.827282   -0.752625
H       1.810859   -0.880925    3.061498
