13

C       0.010201    1.478528   -0.000671
N      -0.012058    0.026649    0.024759
C      -0.135070   -0.845367   -1.037821
N      -0.123807   -2.112485   -0.704229
N       0.014679   -2.038188    0.652749
N       0.104189   -2.899729    1.688846
N       0.223460   -2.128744    2.733317
N       0.217142   -0.789879    2.435865
C       0.084831   -0.781822    1.125795
H       0.952178    1.850788    0.409787
H      -0.087559    1.811401   -1.034815
H      -0.818631    1.881179    0.586966
H      -0.231736   -0.497400   -2.054852
