18

C       0.196832    1.466526    0.046601
C       0.022256   -0.010997   -0.054859
N       0.110971   -0.744985   -1.151390
C      -0.101264   -2.020762   -0.704035
N      -0.317598   -2.114736    0.601802
N      -0.233951   -0.818144    0.995791
C      -0.091975   -3.182072   -1.610894
C       0.442380   -4.518858   -1.134870
C      -1.028923   -4.349302   -1.367864
H       1.256383    1.733816    0.125562
H      -0.199688    1.944462   -0.851196
H      -0.320695    1.873404    0.919990
H      -0.363539   -0.581099    1.965484
H       0.102637   -2.906756   -2.640234
H       1.017387   -5.109760   -1.839234
H       0.788185   -4.561985   -0.108542
H      -1.671820   -4.278473   -0.498135
H      -1.477704   -4.822185   -2.234417
