25

C       0.918126    1.399988    0.378621
C       0.159019    0.111633    0.033353
C       0.530496   -0.482119   -1.322093
C       0.284505    0.408491   -2.534055
C      -1.184715    0.747591   -2.770333
O      -1.263073    1.496971   -3.975270
C       1.753774   -1.374431   -1.382554
C       0.378918   -1.975824   -1.559764
C      -0.197443   -2.951840   -0.555795
H       2.000834    1.240037    0.337584
H       0.677551    2.214975   -0.310876
H       0.666093    1.739743    1.388114
H       0.356921   -0.627070    0.816187
H      -0.921045    0.305034    0.074787
H       0.848338    1.345070   -2.450116
H       0.657623   -0.091124   -3.435369
H      -1.771679   -0.182696   -2.838816
H      -1.586404    1.324461   -1.922766
H      -2.182673    1.737454   -4.119787
H       2.413391   -1.303556   -2.241469
H       2.268097   -1.579510   -0.447721
H       0.124754   -2.229315   -2.587258
H       0.121774   -2.735549    0.467100
H      -1.293517   -2.944839   -0.570306
H       0.128385   -3.972609   -0.785751
