14

O       0.050355    1.411111    0.008268
C      -0.001026    0.006412    0.002182
C      -1.428943   -0.428472    0.012500
C      -2.546661    0.334545    0.022872
C      -3.697904   -0.559997    0.029801
O      -4.884737   -0.341023    0.039052
C      -3.084061   -2.013273    0.021812
O      -3.645987   -3.073693    0.023526
N      -1.710247   -1.795900    0.011291
H       0.972148    1.683696   -0.002376
H       0.486844   -0.427267   -0.889033
H       0.502357   -0.435473    0.880671
H      -2.569419    1.411089    0.025470
H      -1.027646   -2.536147    0.004954
