20

C      -0.036384    1.436133    0.091840
O      -0.022913    0.038993   -0.128746
C      -1.278161   -0.592730    0.000457
C      -1.201603   -1.988521   -0.643625
C      -2.181378   -2.860191    0.158634
C      -2.019236   -2.361532    1.608125
C      -1.710970   -0.892986    1.441284
N      -1.804838    0.034503    2.307090
O      -2.189770   -0.471063    3.562895
H       0.975352    1.796369   -0.111371
H      -0.737325    1.940808   -0.592219
H      -0.315020    1.683818    1.122016
H      -2.053550    0.022471   -0.486334
H      -1.409191   -1.964980   -1.715554
H      -0.174529   -2.346761   -0.510956
H      -3.209381   -2.685941   -0.180156
H      -1.982476   -3.929173    0.050384
H      -2.890891   -2.521367    2.246745
H      -1.172588   -2.856590    2.102223
H      -2.248286    0.329649    4.094985
