18

O      -0.040634    1.310737   -0.448709
C       0.070284   -0.056140   -0.093360
C      -1.304627   -0.627252    0.199665
O      -2.174048   -0.485144   -0.962399
C      -2.564734   -1.874145   -0.893742
C      -1.737820   -2.786552   -1.828547
C      -0.749091   -3.073443   -0.653291
C      -1.578942   -2.145130    0.278586
H      -0.693627    1.347100   -1.158421
H       0.562743   -0.632287   -0.890469
H       0.702345   -0.107370    0.800505
H      -1.739234   -0.080677    1.048078
H      -3.650578   -1.994126   -0.856831
H      -2.274473   -3.671962   -2.179510
H      -1.327106   -2.256892   -2.690844
H      -0.778414   -4.114012   -0.322528
H       0.296780   -2.804059   -0.812812
H      -1.869092   -2.536214    1.252673
