18

N      -0.453803   -0.829747   -0.972744
C      -0.303366    0.230939   -0.538246
C      -0.097529    1.567867    0.000811
C      -0.416786    1.698888    1.520574
C       0.686438    2.665650    2.027484
O       1.397650    3.115655    0.874708
C       1.347781    2.076952   -0.062278
C       2.544552    1.179653   -0.238388
C       2.168504    2.212049   -1.293092
H      -0.728626    2.262043   -0.565321
H      -1.423719    2.089277    1.676017
H      -0.352582    0.728805    2.016160
H       0.288961    3.549132    2.532154
H       1.366289    2.146466    2.716233
H       3.406384    1.398018    0.381830
H       2.389751    0.131854   -0.470595
H       1.753182    1.857438   -2.230345
H       2.785274    3.099959   -1.371686
