11

O      -0.063243    0.014456    0.158740
C      -0.012771    1.182771   -0.050098
O       1.064443    1.931154    0.361975
C       1.016054    3.277273    0.191763
N      -0.095291    3.995812    0.317323
N       0.344011    5.232488    0.096569
N       1.637298    5.371929   -0.142794
C       2.100014    4.122957   -0.091866
H      -0.765916    1.789546   -0.574659
H      -0.278852    6.023253    0.127475
H       3.139240    3.889088   -0.249184
