25

C       0.079805    1.542928   -0.175661
C      -0.028879    0.030565    0.041962
C       0.679214   -0.487254    1.310597
C      -0.063949   -0.060832    2.585668
C       0.868446   -2.019696    1.227870
O       1.573934   -2.384705    0.036622
C       1.543941   -2.634314    2.458863
C       1.737317   -4.141563    2.339917
O       2.330385   -4.594577    3.549813
H       1.127581    1.856642   -0.248963
H      -0.418140    1.838963   -1.104441
H      -0.379517    2.116009    0.636182
H      -1.088103   -0.259553    0.087313
H       0.394952   -0.489775   -0.821576
H       1.689483   -0.045245    1.339249
H       0.508996   -0.272863    3.491687
H      -0.270658    1.012865    2.577793
H      -1.026610   -0.580338    2.666377
H      -0.121165   -2.480892    1.100095
H       2.454831   -1.996675    0.094877
H       2.523302   -2.161989    2.621831
H       0.949843   -2.437845    3.356494
H       0.760859   -4.624799    2.169088
H       2.367217   -4.369434    1.469790
H       2.502321   -5.536521    3.462818
