18

C       0.021309    1.482999    0.062250
C      -0.031011   -0.006005   -0.071868
C       0.671618   -0.854295   -1.063305
N       1.058215   -0.925019    0.388428
C       0.043385   -1.953676    0.795239
C      -0.106643   -2.928933   -0.331842
C      -0.227608   -2.054390   -1.391687
C      -1.673949   -1.551162   -1.083897
C      -1.191414   -0.950979    0.319328
H       1.005252    1.856814   -0.237538
H      -0.732077    1.959615   -0.575736
H      -0.161370    1.799346    1.094999
H       1.424968   -0.473234   -1.742012
H       0.108351   -2.271915    1.834673
H      -0.792178   -3.767221   -0.214334
H      -2.050251   -0.760753   -1.742827
H      -2.419618   -2.343485   -0.995097
H      -1.936697   -0.571611    1.023350
