14

N      -0.107863    1.177275   -0.806938
C      -0.029564    0.083680   -0.189871
N       0.954909   -0.653114    0.488317
C       0.133505   -1.864674    0.637399
C       0.034592   -2.392727    1.996297
N      -0.063047   -2.822299    3.064547
C      -1.049520   -0.997776    0.106064
C      -2.447557   -0.928946    0.519991
O      -2.042138   -1.459301   -0.756687
H       0.785743    1.667726   -0.857814
H       1.950222   -0.642174    0.320122
H       0.377288   -2.675386   -0.058600
H      -2.829910   -1.660615    1.228487
H      -2.958535    0.029831    0.480020
