17

C      -0.191872    1.508751    0.104515
C       0.007970    0.002583    0.022400
O      -1.203799   -0.685148   -0.136264
C       1.070314   -0.456487   -1.004425
N       2.066529   -0.557859    0.089446
C       1.001934   -0.594657    1.107647
C       1.256616    0.218948    2.350036
O       0.479005    0.290487    3.270300
H       0.770566    2.026333    0.159345
H      -0.728309    1.859065   -0.782524
H      -0.770620    1.780791    0.994768
H      -1.841991   -0.326073    0.490520
H       0.772386   -1.415652   -1.445263
H       1.337783    0.245492   -1.801337
H       2.665407   -1.374818    0.053601
H       0.636288   -1.591282    1.388536
H       2.211822    0.792019    2.334792
