21

C      -0.022755    1.496463   -0.142090
C       0.039649    0.002199   -0.089134
C      -0.160018   -0.853453   -1.093149
C      -0.010711   -2.295742   -0.685756
O       1.059522   -2.968123   -1.363877
C       2.234220   -2.779335   -0.589551
C       1.762785   -2.897703    0.865885
C       0.370587   -2.227236    0.832445
C       0.344965   -0.721301    1.205179
H       0.928131    1.941552    0.177598
H      -0.248394    1.858490   -1.148505
H      -0.789803    1.884079    0.540645
H      -0.391104   -0.573037   -2.115490
H      -0.909778   -2.885944   -0.895179
H       2.957292   -3.543628   -0.886888
H       2.679993   -1.789584   -0.778811
H       1.667956   -3.954237    1.134270
H       2.445913   -2.428581    1.579064
H      -0.338275   -2.784314    1.447216
H       1.295115   -0.379347    1.638229
H      -0.419604   -0.505850    1.963503
