18

C       0.081550    1.522746   -0.115726
C      -0.026172    0.023414    0.179531
C      -1.444577   -0.509039    0.023724
C      -2.082025   -0.603594   -1.415840
C      -2.247625   -2.111463   -1.206578
O      -0.952454   -2.656698   -0.956115
C      -1.637782   -2.038960    0.141672
C      -1.868739   -2.809125    1.323651
N      -2.062286   -3.384434    2.308238
H       1.111625    1.871483    0.001774
H      -0.231202    1.752816   -1.140004
H      -0.548148    2.108646    0.562855
H       0.635263   -0.541489   -0.486361
H       0.315424   -0.175629    1.203351
H      -2.132978    0.004227    0.702502
H      -3.029293   -0.067389   -1.496515
H      -1.434152   -0.336657   -2.253752
H      -3.005457   -2.788653   -1.582062
