20

C       0.160054    1.662300    0.082089
C       0.077282    0.151130    0.041212
C       1.240973   -0.732521   -0.357062
C       2.614756   -0.162330   -0.676105
C       3.353897    0.411555    0.501254
C       2.908240    0.402041    1.755383
C       1.594675   -0.184100    2.194512
C       0.732970   -0.743366    1.072518
H       1.132625    2.017394    0.430408
H      -0.013126    2.088793   -0.912676
H      -0.604048    2.076181    0.750143
H      -0.889160   -0.209088   -0.304948
H       0.978772   -1.595089   -0.962585
H       3.232709   -0.958534   -1.114906
H       2.540405    0.601101   -1.465327
H       4.324672    0.851360    0.282947
H       3.521492    0.834214    2.543192
H       1.800994   -0.989084    2.914086
H       1.035352    0.568988    2.770050
H       0.151612   -1.612747    1.365144
