14

O       0.079266    1.350132    0.153063
C       0.046395    0.007167    0.017543
N      -0.003111   -0.639514   -1.132933
N      -0.018301   -1.917952   -0.744097
N       0.017586   -2.146328    0.568041
C       0.059755   -0.921105    1.084446
N       0.108903   -0.568469    2.424036
C       0.127157   -1.377131    3.539396
N       0.099234   -2.647032    3.499499
H       0.060454    1.740483   -0.728938
H      -0.055010   -2.672917   -1.405899
H       0.135004    0.424640    2.585728
H       0.168689   -0.765119    4.449474
H       0.121273   -3.020847    4.445944
