23

C      -0.115871    1.547689    0.066564
C       0.044349    0.051562    0.012135
C      -0.774065   -0.853978    0.896431
C       0.724915   -0.914686    0.989122
C       1.261770   -1.757670   -0.169992
C       0.618520   -0.747997   -1.190313
C      -0.374197   -1.305578   -2.209386
C       1.715412    0.046601   -1.896029
O       2.437176   -0.841718   -2.740277
H       0.789259    2.077116   -0.250614
H      -0.938957    1.886041   -0.575353
H      -0.345221    1.874461    1.086374
H      -1.277119   -0.346396    1.714272
H      -1.331913   -1.697361    0.496150
H       1.252309   -0.692721    1.909942
H       2.349469   -1.786003   -0.253785
H       0.885283   -2.785234   -0.213509
H      -1.141733   -1.921192   -1.732751
H      -0.881740   -0.494074   -2.745154
H       0.146095   -1.919899   -2.949305
H       1.265830    0.865508   -2.481105
H       2.381563    0.501502   -1.145733
H       3.118253   -0.337766   -3.194217
