15

N       0.066665    1.251649   -0.252115
C       0.013376   -0.055995    0.142798
O       0.985265   -0.662928    0.562254
C      -1.303259   -0.720334   -0.009562
N      -1.613934   -1.898960    0.834409
C      -1.505650   -2.079045   -0.607500
C      -2.830462   -1.570179   -1.280788
O      -3.707522   -1.074376   -0.269506
C      -2.637443   -0.242708   -0.701797
H       0.918205    1.751442   -0.049309
H      -0.774052    1.793026   -0.361301
H      -0.706937   -2.166058    1.226683
H      -0.754142   -2.706065   -1.068641
H      -3.256141   -1.892257   -2.222580
H      -2.873666    0.745730   -1.079327
