20

C      -0.182743    1.638897   -0.058344
C       0.022299    0.134696    0.015631
C       1.171977   -0.610460   -0.706272
C       2.461396    0.087406   -0.226222
C       2.110759    0.113727    1.293150
C       0.729049   -0.581704    1.206034
C       0.030290   -0.995344    2.470650
O       1.031231   -1.680085    0.277078
H       0.735358    2.202291    0.129009
H      -0.553524    1.930511   -1.047221
H      -0.927372    1.965118    0.676284
H      -0.910918   -0.398267   -0.187473
H       1.107965   -0.946315   -1.741793
H       3.340730   -0.521326   -0.445870
H       2.608281    1.078512   -0.664207
H       2.801986   -0.479274    1.896537
H       2.060045    1.120307    1.717530
H      -0.204603   -0.117128    3.081399
H      -0.901291   -1.523301    2.248463
H       0.668438   -1.658370    3.064416
