22

C       0.455186    0.930654    0.656433
C      -0.210791    0.455773   -0.648144
C      -1.497677   -0.198752   -0.434476
C      -2.557664   -0.742238   -0.242681
C      -3.832194   -1.372589    0.004408
C      -4.954724   -0.460530    0.480480
C      -4.661897    0.184594    1.837409
C      -4.154321   -2.601078   -0.785053
N      -3.828551   -2.717562    0.642027
H       1.414286    1.411656    0.442177
H      -0.182230    1.649569    1.178263
H       0.634270    0.088611    1.330461
H      -0.347372    1.311478   -1.322112
H       0.462816   -0.233281   -1.173972
H      -5.127394    0.311498   -0.278967
H      -5.867454   -1.062266    0.545057
H      -5.492019    0.822835    2.154577
H      -4.511343   -0.584760    2.600783
H      -3.758130    0.800132    1.792770
H      -5.191687   -2.807178   -1.036354
H      -3.428575   -2.935763   -1.520231
H      -2.867954   -3.034385    0.747103
