19

C       0.039385    1.567623   -0.005553
C       0.058252    0.046814   -0.020111
C       0.782089   -0.711436   -1.134290
C       2.256516   -0.821913   -0.632634
O       2.337867   -0.138513    0.612487
C       1.031994   -0.702694    0.948829
C       0.794157   -0.869060    2.416655
C       1.227269   -1.807925   -0.199181
O       1.038820   -3.159914   -0.292446
H       1.057321    1.962009   -0.048899
H      -0.520129    1.958879   -0.862158
H      -0.439781    1.950410    0.902755
H      -0.947443   -0.370544    0.102908
H       0.535685   -0.790969   -2.185766
H       3.123700   -0.868444   -1.277557
H       0.804377    0.105228    2.917740
H      -0.178633   -1.336779    2.595490
H       1.570326   -1.491158    2.872439
H       1.754712   -3.601963    0.179092
