17

O      -0.455351    0.213435    0.034089
C      -0.122922    1.368600    0.018271
C       1.316212    1.864996    0.038742
C       1.585806    2.639523   -1.277913
C       2.701092    3.671737   -1.186949
O       2.293334    5.003615   -0.859411
C       3.049305    4.255473    0.114480
C       2.326399    3.776683    1.318432
C       1.548028    2.695487    1.283708
H      -0.877494    2.189294   -0.021196
H       1.945460    0.967229    0.090511
H       1.802607    1.920924   -2.073432
H       0.676789    3.177633   -1.573958
H       3.466705    3.622692   -1.960271
H       4.055377    4.641183    0.275122
H       2.475644    4.317460    2.248455
H       1.066267    2.347040    2.194309
