18

C      -0.063845    1.640340   -0.190889
C      -0.041673    0.132335    0.033916
C       1.071787   -0.604147   -0.812024
C       1.979383   -0.611410    0.478707
C       0.679051   -0.420963    1.227524
C      -0.164477   -1.062716    2.025471
C      -1.562881   -0.877137    1.453011
O      -1.369730   -0.372007    0.118686
H       0.948135    2.056992   -0.216730
H      -0.548205    1.864666   -1.146693
H      -0.624779    2.140383    0.603986
H       0.751771   -1.611791   -1.081006
H       1.460257   -0.079067   -1.688727
H       2.555486   -1.511346    0.699377
H       2.645900    0.255650    0.504931
H       0.054471   -1.744447    2.837809
H      -2.097276   -1.834570    1.393082
H      -2.196753   -0.185191    2.031010
