23

C      -0.363338    1.838552    0.738316
C      -0.070857    0.352873    0.502574
C      -1.274464   -0.430666   -0.051627
C      -1.665977   -0.103214   -1.482825
C      -1.952797   -1.186167   -2.206512
C      -1.798460   -2.464653   -1.424822
C      -0.542851   -3.319394   -1.764261
C       0.244730   -2.547018   -0.669645
C      -1.096882   -1.965660   -0.117892
H       0.508708    2.350980    1.156688
H      -0.630560    2.352021   -0.191233
H      -1.195388    1.971448    1.439022
H       0.782746    0.254037   -0.177967
H       0.237482   -0.106235    1.450753
H      -2.128063   -0.201371    0.607780
H      -1.724253    0.916153   -1.850748
H      -2.270577   -1.174217   -3.244738
H      -2.741172   -3.017024   -1.341530
H      -0.685738   -4.374220   -1.513160
H      -0.162265   -3.255822   -2.787573
H       0.831943   -3.151483    0.025485
H       0.898840   -1.781407   -1.091298
H      -1.414849   -2.465585    0.799596
