17

C       0.016992    1.543976    0.041995
C       0.013044    0.013425    0.074306
O       0.602281   -0.482000    1.267794
C      -1.398756   -0.548749   -0.074360
C      -1.590040   -2.074901    0.055742
C      -2.519100   -1.717296    1.230229
O      -2.161779   -0.316762    1.144040
H       1.026463    1.919178    0.227445
H      -0.324232    1.922021   -0.927777
H      -0.649129    1.941972    0.815035
H       0.626115   -0.376880   -0.748549
H      -0.043944   -0.295360    1.962199
H      -1.902663   -0.102170   -0.942441
H      -2.048864   -2.582242   -0.793428
H      -0.676953   -2.590316    0.355302
H      -3.588621   -1.867325    1.037335
H      -2.269343   -2.142617    2.208314
