17

C       0.058532    1.484956    0.248901
C      -0.047504   -0.009083   -0.101489
C      -1.452735   -0.503013   -0.141930
N      -2.120777   -0.961330   -1.153410
C      -3.384721   -1.269306   -0.646849
C      -4.462934   -1.833131   -1.508542
C      -3.397085   -0.966784    0.672471
O      -2.165186   -0.473482    1.014835
H       1.106366    1.797076    0.276552
H      -0.461077    2.097807   -0.493516
H      -0.384586    1.688796    1.227468
H       0.387195   -0.207767   -1.083877
H       0.518038   -0.596764    0.632058
H      -4.150411   -2.783758   -1.953511
H      -5.376349   -2.006257   -0.933563
H      -4.699060   -1.153236   -2.333995
H      -4.127021   -1.030466    1.461020
