17

C      -0.227195    1.564331    0.031484
C       0.033988    0.063873   -0.028925
C       0.917234   -0.507523   -1.180540
O       1.209144   -1.817304   -0.660575
C       1.914296   -1.388393    0.508606
C       2.907134   -0.374509   -0.058302
C       2.290312    0.166372   -1.110274
C       0.836717   -0.485962    1.171091
O       0.676727   -0.250002    2.337332
H       0.706063    2.132751   -0.024315
H      -0.878547    1.888850   -0.786161
H      -0.713824    1.817237    0.977798
H      -0.917823   -0.481172   -0.042968
H       0.439836   -0.582325   -2.156801
H       2.283745   -2.220831    1.102285
H       3.854427   -0.111330    0.390030
H       2.628619    0.969711   -1.749577
