18

C       0.416888    1.277127   -0.256052
N      -0.252833    0.067131    0.232203
C       0.473655   -0.743518    1.083418
C       0.978093   -1.992058    0.998617
N       1.670418   -2.332392    2.157766
C       1.547687   -1.272194    2.903298
N       1.994126   -1.099576    4.181810
C       2.962549   -2.043782    4.715371
O       0.854983   -0.252921    2.358431
H       1.331396    0.987101   -0.780819
H      -0.240274    1.784553   -0.968218
H       0.686655    1.987523    0.539000
H      -1.175657    0.281827    0.594110
H       0.888540   -2.675714    0.169081
H       2.102381   -0.135174    4.455378
H       2.576970   -3.056800    4.586701
H       3.938713   -1.989280    4.214164
H       3.094826   -1.847485    5.781581
