17

C      -1.005118    0.878614    0.150739
N       0.252414    0.180885   -0.116336
C       0.813367   -0.480997    1.061284
C       0.294929   -0.545300   -1.285594
C       0.964215   -0.431285   -2.452512
N       0.625187   -1.468142   -3.322595
C      -0.231414   -2.153896   -2.635829
O      -0.873696   -3.261245   -3.006009
O      -0.513596   -1.711505   -1.412068
H      -0.844549    1.619653    0.940740
H      -1.327892    1.399681   -0.753351
H      -1.812673    0.201931    0.472952
H       0.160866   -1.273616    1.461111
H       1.778156   -0.922556    0.801896
H       0.971605    0.261761    1.850142
H       1.673233    0.333220   -2.727340
H      -0.574868   -3.462306   -3.902624
