21

C      -0.024961    1.570722   -0.085537
C       0.044987    0.040864   -0.047808
C       0.695563   -0.531883   -1.310947
O       0.618147   -1.947439   -1.331255
C       1.341848   -2.552036   -0.278162
C       0.959985   -2.027088    1.107945
O       0.907264   -2.764782    2.063870
C       0.736539   -0.519249    1.223013
C       2.096308    0.134813    1.559323
H       0.965164    2.023144   -0.201988
H      -0.642821    1.907820   -0.924069
H      -0.467072    1.968356    0.833870
H      -0.982769   -0.345990   -0.042476
H       0.164288   -0.189027   -2.203772
H       1.745082   -0.201557   -1.401514
H       1.147135   -3.625641   -0.313392
H       2.429689   -2.397637   -0.409670
H       0.080047   -0.373438    2.087904
H       2.813614    0.052669    0.736674
H       1.970147    1.195806    1.788579
H       2.533375   -0.349410    2.436790
