18

C       0.062223    1.465852   -0.039527
N       0.001854    0.006594    0.043411
C       0.809437   -0.494115    1.158473
C      -1.360517   -0.533673    0.023826
C      -2.159013   -0.068149   -1.220014
C      -1.284647   -2.012478   -0.033506
N      -1.248508   -3.163259   -0.116084
C      -2.127566   -0.154799    1.251362
N      -2.658941    0.221293    2.206286
H       1.114683    1.758498   -0.043715
H      -0.381685    1.823882   -0.969733
H      -0.430050    1.970455    0.808558
H       0.458658   -0.135423    2.139901
H       0.806586   -1.586180    1.163380
H       1.839416   -0.158738    1.015857
H      -1.556050   -0.252095   -2.111329
H      -3.091171   -0.631127   -1.289319
H      -2.402658    0.991904   -1.147859
