14

O      -0.810216    0.427983   -1.943355
C      -0.116402   -0.231567   -0.902373
C      -0.939090   -0.220557    0.364749
O      -1.985750   -1.185401    0.482565
C      -0.921979   -1.264094    1.422583
C      -0.040538   -2.473267    1.385063
O       0.739290   -2.737909    2.264751
C      -0.198306   -3.375466    0.224690
N      -0.288255   -4.115093   -0.659445
H      -1.575971   -0.111190   -2.170649
H       0.162282   -1.254816   -1.181726
H       0.804264    0.337728   -0.734867
H      -1.229135    0.777757    0.696225
H      -1.147646   -0.954408    2.442151
