16

C       0.061313    1.471813   -0.140085
N      -0.008501    0.015506    0.027755
C      -1.156219   -0.581659    0.826759
C      -0.251881   -1.828969    1.008568
C       0.707280   -0.620491    1.198997
C       2.177480   -0.588255    1.389095
O       2.919139    0.145375    0.782152
C      -0.466938    0.019268    2.070540
O      -0.639725    0.762379    2.977943
H       1.061362    1.717124   -0.501014
H      -0.670133    1.761207   -0.899944
H      -0.134302    2.049620    0.775325
H      -2.187664   -0.524925    0.483975
H      -0.440067   -2.472586    1.868155
H      -0.074610   -2.370772    0.078605
H       2.553199   -1.283678    2.171585
