12

N      -0.065136    1.003321   -0.763119
C      -0.027112   -0.019120   -0.016895
N       1.090088   -0.589999    0.592826
C       1.348825   -1.831729    0.421644
N       0.727168   -2.730670   -0.429980
C      -0.522444   -2.724616   -0.656685
O      -1.499759   -1.987292   -0.085152
C      -1.347320   -0.660985    0.374369
O      -2.230230   -0.171994    0.990681
H       0.884789    1.349071   -0.926583
H       2.213390   -2.247517    0.936386
H      -0.951396   -3.436063   -1.358100
