19

C       0.127754    1.465941    0.102549
N       0.057192    0.027494    0.095137
C      -1.074568   -0.909183    0.082631
C      -0.022408   -2.057260   -0.027088
C       1.035592   -0.931167   -0.029727
O       2.232805   -0.850428   -0.114829
C      -1.946081   -0.883831    1.311418
C      -3.208371   -0.099771    1.317372
N      -3.245941   -1.570921    1.299597
H       1.184491    1.742438    0.075932
H      -0.372184    1.899219   -0.773179
H      -0.326611    1.888097    1.005817
H      -1.703199   -0.802960   -0.814842
H       0.025228   -2.723746    0.836446
H      -0.057856   -2.646543   -0.944890
H      -1.400640   -0.996084    2.247209
H      -3.562519    0.356567    2.237024
H      -3.475194    0.440194    0.411530
H      -3.454818   -1.900458    0.358989
