21

C      -0.030531    1.489953   -0.342479
C      -0.022971    0.013566   -0.008808
C       1.243281   -0.803255   -0.106114
C       0.613674   -0.548996    1.245505
C       1.298352    0.303522    2.279804
C       0.428288    0.836145    3.467661
C       1.522439    0.338928    4.424700
O       1.770837    0.539784    5.577803
C       2.233195   -0.430030    3.300179
H       0.907998    1.978952   -0.065970
H      -0.168431    1.640641   -1.418793
H      -0.843356    2.014466    0.172370
H      -0.928667   -0.502719   -0.317793
H       1.200100   -1.802111   -0.526349
H       2.160996   -0.268151   -0.333385
H       0.088159   -1.398266    1.680365
H       1.838248    1.127620    1.807321
H       0.192633    1.902599    3.506933
H      -0.501978    0.270502    3.596878
H       2.030792   -1.505686    3.361537
H       3.313304   -0.285700    3.217766
