15

N      -0.454295    1.356223    0.042096
C      -0.177368   -0.052025   -0.001763
C      -1.278988   -0.875309    0.064797
O      -2.525133   -0.404769    0.163864
N      -1.144339   -2.218741    0.031776
C       0.089340   -2.921139   -0.070174
O       0.079495   -4.139972   -0.089754
C       1.232080   -2.038090   -0.139090
C       1.088906   -0.678660   -0.105471
H      -0.017058    1.811216    0.837519
H      -0.137781    1.838016   -0.793763
H      -2.404825    0.565834    0.170900
H      -1.972821   -2.796802    0.082571
H       2.201675   -2.511561   -0.218381
H       1.971445   -0.045603   -0.159479
