19

C      -0.047789    1.482024   -0.011076
C       0.087897   -0.012788    0.037216
O      -1.071023   -0.712299   -0.412183
C      -1.464392   -1.691249    0.536124
C      -0.732782   -3.008497    0.593461
C      -0.354523   -1.875429    1.533218
C       0.697465   -0.863804    1.142498
C       1.343399   -0.782307   -0.248542
O       1.340948   -1.802021   -1.197940
H       0.887162    1.958269    0.298282
H      -0.279767    1.820430   -1.026610
H      -0.847490    1.825693    0.653606
H      -2.518235   -1.634353    0.788851
H      -1.287840   -3.830173    1.035651
H      -0.042129   -3.289762   -0.187053
H      -0.552766   -1.981079    2.593180
H       1.255799   -0.400373    1.948286
H       2.272051   -0.215029   -0.267952
H       0.482335   -1.749639   -1.640272
