14

O      -0.199078    1.356423    0.087572
C       0.011056   -0.044582   -0.023505
C       0.769764   -0.401703   -1.228603
C       1.400803   -0.672027   -2.214242
C       0.661526   -0.601323    1.215591
C       0.273099   -1.500798    2.156774
C       1.365023   -1.512911    3.066241
N       2.320317   -0.691832    2.708206
O       1.875187   -0.111307    1.522073
H       0.668934    1.775811    0.126766
H      -0.991016   -0.481949   -0.087674
H       1.957405   -0.914130   -3.086164
H      -0.644435   -2.062891    2.199534
H       1.484732   -2.090223    3.972178
