20

C       0.111475    1.467843   -0.283053
C       0.021467   -0.036830   -0.054716
C       1.075042   -0.874604   -0.852170
C       1.730221   -1.284659    0.479666
C       0.698874   -0.496349    1.257608
N       0.816508   -1.931755    1.393848
C      -0.228539   -2.856133    0.948350
C       0.326968   -4.173282    0.653394
C       0.784618   -5.252951    0.392610
H       1.139790    1.824758   -0.155446
H      -0.213608    1.733444   -1.294375
H      -0.520400    2.012924    0.427004
H      -1.019539   -0.360242   -0.170361
H       0.709456   -1.689924   -1.483913
H       1.725380   -0.235754   -1.454750
H       2.793459   -1.408372    0.654006
H       0.806761    0.113645    2.149870
H      -0.956095   -2.936940    1.765350
H      -0.788823   -2.505763    0.068409
H       1.186617   -6.210111    0.170067
