19

C      -0.103252    1.499840    0.213953
C      -0.239458   -0.001195   -0.054150
C       0.713979   -0.481969   -1.137453
O       0.503820   -1.878570   -1.327294
C       1.328468   -2.441891   -2.329727
C       2.764055   -2.609405   -1.785357
O       3.752672   -2.235686   -2.352916
C       0.824431   -3.761299   -2.690285
C       0.476995   -4.875169   -2.976375
H       0.909166    1.757439    0.543645
H      -0.319213    2.088011   -0.684671
H      -0.797910    1.820851    0.995036
H      -0.043539   -0.571265    0.860989
H      -1.263118   -0.243627   -0.360805
H       0.530596    0.053234   -2.083463
H       1.757907   -0.279562   -0.849041
H       1.382947   -1.795687   -3.219346
H       2.785586   -3.101829   -0.788682
H       0.149081   -5.850817   -3.239553
