13

N      -0.019268    1.325946    0.008056
C       0.005332   -0.020560    0.000856
N      -1.178439   -0.658711    0.003946
C      -1.085376   -1.988299   -0.003454
N       0.055189   -2.699498   -0.013478
C       1.153730   -1.943503   -0.015461
N       1.213814   -0.618891   -0.008825
C      -2.314152   -2.727589   -0.000939
C      -3.342153   -3.350393    0.001150
H       0.846034    1.835323    0.006051
H      -0.902141    1.804397    0.015365
H       2.105315   -2.471794   -0.023442
H      -4.249695   -3.902677    0.003019
