14

N       0.117570    1.399482    0.358529
C      -0.062427    0.022554   -0.061007
C      -1.520442   -0.414308   -0.240540
C      -1.451829   -1.433431   -1.351778
N      -2.312206   -2.299356   -1.641908
O      -0.258361   -1.262519   -2.052687
C       0.560710   -0.351166   -1.415193
O       1.576895    0.039735   -1.900156
H       1.111658    1.606892    0.404272
H      -0.264501    2.027198   -0.344793
H       0.425637   -0.623462    0.681234
H      -1.989137   -0.828758    0.650959
H      -2.130521    0.435072   -0.571442
H      -2.020778   -2.854747   -2.447970
