21

C      -0.602323    1.562127   -0.004145
C      -0.058709    0.141917   -0.068217
C      -1.120403   -0.898364    0.259254
C       0.843352   -0.178622   -1.288143
C       1.974981   -0.306588   -0.257787
C       2.879960   -1.548529   -0.142868
O       4.058061   -0.762015   -0.414832
C       3.304230    0.466423   -0.358570
O       1.093192   -0.004944    0.825519
H       0.183594    2.290637   -0.222757
H      -1.413140    1.699934   -0.727750
H      -0.995427    1.774405    0.995270
H      -1.948950   -0.844982   -0.455365
H      -0.700384   -1.907676    0.226741
H      -1.522546   -0.728708    1.263207
H       0.596345   -1.098730   -1.822343
H       0.961271    0.634415   -2.007898
H       2.885322   -1.978177    0.867542
H       2.732118   -2.344935   -0.882727
H       3.454878    1.087595   -1.250177
H       3.523651    1.053416    0.543012
