21

C       0.237620    1.413146   -0.058650
C       0.100943   -0.098143   -0.035878
C      -1.239837   -0.646289   -0.499136
C      -1.629338   -0.252952   -1.942435
O      -0.629910   -0.596721   -2.897197
C      -2.933589   -0.822667   -2.297663
C      -3.982697   -1.338591   -2.578880
C       1.336393   -0.917545   -0.313841
C       0.783555   -0.845788    1.088924
H       1.193361    1.724081    0.374076
H       0.200290    1.806660   -1.080276
H      -0.560320    1.895359    0.519332
H      -1.238377   -1.741354   -0.429813
H      -2.039889   -0.296994    0.167098
H      -1.698274    0.839324   -2.003429
H      -0.629857   -1.556432   -2.984257
H      -4.916003   -1.773930   -2.838749
H       1.224830   -1.847189   -0.860558
H       2.259200   -0.390126   -0.530636
H       1.328530   -0.267385    1.827618
H       0.293775   -1.726251    1.492462
