15

N       0.007125    1.325219    0.160593
C       0.017417   -0.030215    0.029591
N      -1.045226   -0.777389    0.024031
C      -0.556296   -2.163707   -0.066532
C       0.128978   -2.342337   -1.431754
O       1.307570   -1.501145   -1.334326
C       1.268454   -0.867551   -0.038340
C       0.711073   -2.041882    0.816830
O       1.100679   -2.599362    1.793964
H       0.783999    1.840040   -0.220490
H      -0.895473    1.768485    0.063112
H      -1.298823   -2.909205    0.206895
H       0.439681   -3.377076   -1.617934
H      -0.504091   -1.990685   -2.253422
H       2.239560   -0.440785    0.197640
