19

O      -0.050583    1.444578   -0.016614
C      -0.000559    0.021845    0.031393
C       0.794737   -0.506299    1.229887
C       0.578636   -2.016379    1.359229
C      -0.888712   -2.325479    1.677076
N      -1.865075   -1.637340    0.810428
C      -2.304837   -0.303780    1.211066
C      -1.435185   -0.471985    0.019738
H       0.849395    1.766400   -0.136078
H       0.483226   -0.362897   -0.882633
H       1.856793   -0.270006    1.091190
H       0.472145    0.011028    2.141422
H       0.863374   -2.504914    0.417890
H       1.217329   -2.444656    2.139200
H      -1.066945   -3.402642    1.580794
H      -1.096294   -2.065517    2.723285
H      -3.365558   -0.097428    1.090598
H      -1.859706    0.139836    2.099936
H      -1.902954   -0.420975   -0.961624
