18

O       0.001724    1.400698   -0.068698
C       0.002183    0.031479   -0.034628
C       0.125448   -0.771361   -1.145721
C       0.347203   -0.725889   -2.624451
C       0.032630   -2.193352   -3.039158
C       0.298944   -3.043318   -1.772442
N       0.073266   -2.078969   -0.709971
C      -0.065987   -2.129759    0.643086
C      -0.122585   -0.822816    1.099034
H      -0.119762    1.722857    0.828570
H      -0.297223   -0.009345   -3.141914
H       1.383062   -0.460026   -2.876210
H      -1.023538   -2.276182   -3.311468
H       0.624471   -2.532562   -3.892067
H      -0.374896   -3.900794   -1.685220
H       1.330728   -3.418934   -1.744801
H      -0.129614   -3.064538    1.176215
H      -0.259230   -0.514082    2.125712
