15

O      -0.152811    0.142121   -0.797939
C      -0.113679    1.223206   -0.278201
C      -1.224569    2.021710    0.299779
C      -0.971599    2.577543    1.714025
C      -0.638698    3.397022    0.520308
O       0.709497    3.440697    0.110646
C       1.166933    2.119699   -0.185740
C       2.109857    1.611156    0.804336
C       2.876338    1.178813    1.622688
H      -2.235301    1.820336   -0.028234
H      -1.867685    2.827791    2.270497
H      -0.163488    2.155789    2.300321
H      -1.168293    4.311033    0.281606
H       1.637864    2.135928   -1.175603
H       3.561495    0.797951    2.339650
