18

C      -0.254853    1.572222    0.069747
O      -0.213922    0.250177    0.566183
C      -1.305611   -0.528409    0.165446
C      -1.260190   -1.168934   -1.254551
N      -1.282250   -2.555216   -0.681062
C       0.091787   -3.126811   -0.508483
C       0.147309   -2.572252    0.928509
O       0.905698   -2.657820    1.844109
C      -1.254045   -1.968180    0.724959
H       0.620985    2.091092    0.464453
H      -0.219349    1.601198   -1.029434
H      -1.163455    2.097610    0.401331
H      -2.252230   -0.011726    0.380886
H      -2.131980   -0.975260   -1.885386
H      -0.350983   -0.931597   -1.817806
H       0.100763   -4.221697   -0.553772
H       0.851861   -2.742679   -1.197983
H      -2.023786   -2.266254    1.441056
