21

C      -0.093323    1.524906    0.077688
C       0.078320    0.003446    0.060547
C       0.710812   -0.520906   -1.230665
C       0.941499   -2.032618   -1.271908
N      -0.293523   -2.839111   -1.210592
C       0.334566   -2.553206   -2.522036
C      -0.271036   -1.377663   -3.255365
C      -1.415826   -0.684504   -2.610210
N      -0.049917   -0.153163   -2.459000
H       0.871748    2.032779   -0.029458
H      -0.732044    1.857493   -0.744868
H      -0.543459    1.858580    1.017903
H       0.714971   -0.306256    0.899444
H      -0.885890   -0.492961    0.211528
H       1.695026   -0.045910   -1.350440
H       1.858044   -2.439944   -0.853543
H      -0.065455   -3.788845   -0.926542
H       0.771224   -3.367710   -3.089129
H      -0.094693   -1.313084   -4.325722
H      -2.069474   -0.049395   -3.202860
H      -1.886883   -1.200429   -1.781316
