20

O      -0.025478    1.341203    0.086202
C       0.033480   -0.035651    0.001503
C       0.501031   -1.056982    1.085683
C       0.003490   -1.892002   -0.126432
C      -1.225182   -0.902983   -0.214785
C       0.770608   -0.913565   -1.058247
N       0.070385   -3.311555   -0.212955
C      -1.040807   -4.075405    0.349583
C      -0.857347   -3.977078   -1.124562
H       0.867842    1.675476    0.220278
H       1.573547   -1.106453    1.294172
H      -0.097651   -1.109946    1.998993
H      -1.942893   -0.924344    0.609436
H      -1.717086   -0.804283   -1.185968
H       0.416454   -0.836441   -2.089744
H       1.862088   -0.952946   -1.000581
H      -0.762319   -4.980012    0.882081
H      -1.872553   -3.524418    0.782979
H      -1.567024   -3.360653   -1.671918
H      -0.442659   -4.808684   -1.686602
