19

C      -0.026731    1.509686    0.134618
C       1.328496    0.837868    0.004036
O       2.142980    0.316463    1.033555
C       1.635751   -1.022027    1.213216
C       0.133868   -0.785049    1.243425
C       0.072899    0.014354   -0.069715
C       0.016896   -0.950833   -1.230900
C       1.380097   -1.711901   -1.149238
O       1.937930   -1.917451    0.165753
H      -0.401745    1.842667    1.097061
H      -0.288650    2.160059   -0.696167
H       1.880274    1.066693   -0.903268
H       2.120331   -1.430341    2.101653
H      -0.449861   -1.706851    1.210157
H      -0.154656   -0.201607    2.119957
H      -0.836737   -1.633193   -1.153622
H      -0.043193   -0.457562   -2.206829
H       1.303607   -2.712319   -1.585754
H       2.115547   -1.148736   -1.736981
