18

C      -0.041474    1.490501    0.022541
C       0.030258   -0.033142    0.037244
C       0.840807   -0.611490   -1.114810
N       2.121979   -0.578819   -0.363952
C       1.182591   -0.608589    0.896819
C       1.071207   -2.139755    0.796733
C       1.448455   -1.916935   -0.654160
C       2.062682   -2.866993   -1.597214
O       2.087479   -4.061986   -1.427453
H       0.947361    1.928964   -0.143664
H      -0.707396    1.845238   -0.770955
H      -0.427904    1.867515    0.975073
H      -0.960913   -0.466097    0.217388
H       0.798299   -0.348950   -2.167464
H       1.512402   -0.111025    1.807214
H       1.875822   -2.653589    1.326610
H       0.109945   -2.603582    1.035424
H       2.518716   -2.390504   -2.494268
