20

C      -1.016530    0.993440   -0.181737
C       0.110920   -0.004915    0.026443
C       1.399939    0.127081   -0.836560
C       2.223769   -0.248205    0.418079
C       1.004698    0.125107    1.294521
C       2.853350   -1.669107    0.533525
C       4.192855   -0.932678    0.782529
O       5.332917   -1.246147    0.993588
N       3.561418    0.283225    0.666667
H      -0.646549    2.022946   -0.112151
H      -1.479469    0.871844   -1.167269
H      -1.802065    0.870216    0.572001
H      -0.276871   -1.026864   -0.046426
H       1.506113   -0.502198   -1.724179
H       1.574529    1.170318   -1.123151
H       1.064561    1.167770    1.626528
H       0.785724   -0.505798    2.160052
H       2.509827   -2.269755    1.377993
H       2.835588   -2.268157   -0.379017
H       3.911839    1.228236    0.732410
