17

C      -0.802473    1.223530    0.067871
O       0.607663    1.412682   -0.015699
C       0.108539    0.064001    0.003589
C       0.450510   -0.716362    1.267960
C      -0.010869   -2.154356    1.204589
O      -1.308232   -2.402689    0.674386
C      -0.157044   -2.801687   -0.111915
C       0.131421   -2.007837   -1.330866
C       0.247658   -0.679060   -1.272085
H      -1.260036    1.480739    1.022912
H      -1.369635    1.517041   -0.814351
H       1.541599   -0.714720    1.390391
H       0.031433   -0.213242    2.145175
H       0.257250   -2.772602    2.062219
H      -0.037689   -3.880438   -0.184775
H       0.236747   -2.536485   -2.272716
H       0.440547   -0.079503   -2.156458
