13

N       0.146398    1.343446   -0.107535
C       0.101245   -0.029017   -0.067699
N      -0.989969   -0.750376   -0.047725
O      -0.552221   -2.061730    0.056680
N       0.805503   -2.130716    0.076242
C       1.236413   -0.903562    0.014564
C       2.678176   -0.505924    0.007596
O       2.942348    0.448124   -1.021214
H       0.970015    1.699698   -0.573870
H      -0.713911    1.788071   -0.393238
H       2.934156    0.002733    0.942881
H       3.311585   -1.396699   -0.075570
H       2.838483    0.001878   -1.868872
