18

O       0.076958    0.020825   -0.223856
C      -0.006206    1.221217   -0.081144
C      -1.263170    2.102039   -0.078662
C      -0.721426    3.488437    0.140748
C       0.608731    3.407311    0.244179
N       1.064838    2.084693    0.118119
C       2.417083    1.618028    0.175528
C       3.556796    2.418744   -0.393210
C       3.428540    2.231435    1.105186
H      -1.796882    1.978930   -1.028217
H      -1.945410    1.762043    0.709123
H      -1.308475    4.391208    0.203308
H       1.324642    4.200764    0.404360
H       2.427103    0.543259    0.042042
H       4.338615    1.887197   -0.924014
H       3.335469    3.400934   -0.797144
H       3.122198    3.089525    1.693985
H       4.121460    1.570063    1.613105
