16

O      -0.082446   -0.028578    0.243292
C      -0.011107    1.167512    0.100687
N      -1.074798    2.040767    0.008293
C      -0.747027    3.470854   -0.033850
C       0.713936    3.404336    0.299133
C       1.571306    3.994686    1.119097
C       2.761673    3.076363    1.300323
O       2.368589    1.824628    0.718419
C       1.240043    2.056376   -0.095436
H      -2.021016    1.693419    0.020394
H      -0.942152    3.898848   -1.027950
H      -1.324449    4.043505    0.699722
H       1.450851    4.927239    1.655389
H       3.674518    3.453033    0.809985
H       2.999653    2.915776    2.359761
H       1.513009    1.985497   -1.164511
