21

C      -0.236903    1.534573   -0.064732
C       0.033683    0.037543    0.039519
C       1.351588   -0.656977   -0.294140
C       2.627482    0.175813   -0.341265
C       2.656782    0.961119    0.993226
C       1.792845    0.137987    1.976568
O       1.058323    0.913886    2.922625
C       0.834451   -0.663168    1.115654
O       0.333580   -1.841539    1.675786
H       0.422956    2.027871   -0.786712
H      -1.262075    1.705351   -0.405846
H      -0.122298    2.035196    0.899485
H      -0.809442   -0.583779   -0.250210
H       1.296525   -1.556839   -0.896978
H       3.489258   -0.497318   -0.410809
H       2.677204    0.841102   -1.210616
H       3.675608    1.107292    1.364070
H       2.210200    1.951552    0.880050
H       2.417726   -0.596168    2.508294
H       1.683542    1.305551    3.540399
H      -0.286562   -1.583002    2.367241
