20

N      -0.091533    1.495174    0.057958
C      -0.039118    0.042250   -0.024693
C      -1.448896   -0.551956    0.071374
C      -1.420001   -2.085718    0.000430
C      -0.670237   -2.560689   -1.252188
N       0.677517   -1.992886   -1.388793
C       0.695043   -0.531625   -1.287035
C       0.117681    0.062623   -2.507686
N      -0.364230    0.561469   -3.432492
H       0.841218    1.895844    0.012508
H      -0.608118    1.872834   -0.732687
H       0.547113   -0.315700    0.833272
H      -1.914814   -0.203681    0.997735
H      -2.056274   -0.157453   -0.755416
H      -0.922429   -2.486878    0.894315
H      -2.440235   -2.486349    0.001687
H      -0.574333   -3.650533   -1.264784
H      -1.237768   -2.282622   -2.149556
H       1.285261   -2.367331   -0.666871
H       1.744024   -0.211885   -1.250657
