17

O       0.867016   -0.316812   -0.106142
C       0.400858    0.791330   -0.065501
C       1.190413    2.071428    0.072084
C       0.967728    3.031890   -1.135693
C       0.910440    4.394593   -0.500517
C       0.800955    4.335391    0.834091
C       0.765183    2.893550    1.321511
C       0.684102    5.424662    1.729358
C       0.586011    6.315404    2.535113
H      -0.702917    0.954143   -0.132456
H       2.247442    1.805452    0.142660
H       1.763004    2.933173   -1.881726
H       0.026423    2.812845   -1.663427
H       0.919702    5.312198   -1.076343
H      -0.249404    2.637539    1.658188
H       1.428565    2.717860    2.172770
H       0.499272    7.112475    3.231312
