17

C      -0.079766    1.479738   -0.012650
O       1.155530    0.762589   -0.082044
C      -0.068100    0.012005    0.012244
C      -0.298629   -0.741450    1.314188
C       0.147884   -2.180232    1.239026
C       0.177622   -2.860469    0.092545
C      -0.226542   -2.226126   -1.186472
O      -1.525078   -1.582194   -1.219111
C      -0.364742   -0.758278   -1.239022
H      -0.250633    2.029165    0.912640
H      -0.370067    2.005505   -0.921723
H       0.226626   -0.213144    2.115821
H      -1.369103   -0.707082    1.558011
H       0.429285   -2.663886    2.169795
H       0.498728   -3.896676    0.062272
H       0.012400   -2.756440   -2.105434
H      -0.170798   -0.228684   -2.171420
