19

C       0.124610    1.586143    0.010846
C       0.126853    0.063715   -0.044158
O       1.060646   -0.346829   -1.041491
C       1.109641   -1.738479   -1.172227
C       2.462449   -2.367554   -1.053777
C       1.479493   -2.471637    0.094034
C       1.608040   -1.563532    1.312515
C       0.472419   -0.546421    1.326094
O      -0.130899   -0.228459    2.323039
H       1.131510    1.960317    0.218582
H      -0.206430    1.998511   -0.945100
H      -0.546242    1.919605    0.804683
H      -0.883532   -0.293621   -0.305566
H       0.373533   -2.158759   -1.857055
H       2.662211   -3.258752   -1.637948
H       3.305679   -1.695194   -0.937673
H       1.019170   -3.437372    0.272894
H       1.593612   -2.115424    2.254247
H       2.549924   -1.001573    1.277536
