20

C      -0.117478    1.592291   -0.093083
C      -0.078164    0.063649   -0.131608
C       0.804444   -0.508864   -1.265252
C       2.203726   -0.091511   -1.100865
N       3.299080    0.252615   -0.969311
C       0.708643   -2.033992   -1.362040
O       1.106537   -2.715506   -0.207044
C      -0.388715   -2.638372   -2.203640
C       1.061724   -2.716050   -2.644533
H       0.882344    2.009800    0.058167
H      -0.515410    2.002422   -1.027717
H      -0.755857    1.942034    0.723202
H       0.290342   -0.321494    0.825589
H      -1.089245   -0.335886   -0.275032
H       0.456072   -0.090866   -2.218464
H       0.404740   -2.640181    0.448622
H      -0.842435   -3.549309   -1.829891
H      -1.062334   -1.981480   -2.744120
H       1.383086   -2.109805   -3.484187
H       1.560043   -3.673520   -2.553770
