17

C      -0.050698    1.511020    0.046878
C      -0.054023    0.019045   -0.005629
C      -0.015179   -0.777472   -1.077993
C       0.040684   -2.203322   -0.661436
C       1.246552   -2.641851    0.133005
C       2.427288   -1.821406    0.200170
N       3.388447   -1.184339    0.296933
N      -0.008833   -2.242049    0.810546
C      -0.069781   -0.828730    1.253380
H       0.857537    1.879823    0.538913
H      -0.095689    1.949429   -0.952893
H      -0.900789    1.888646    0.628629
H      -0.000836   -0.460311   -2.112740
H      -0.508215   -2.967708   -1.205630
H       1.452611   -3.705154    0.224834
H       0.765074   -0.597044    1.925859
H      -0.994381   -0.688684    1.828106
