18

N       0.632062   -0.408148    0.355498
C      -0.235235    0.104390   -0.551970
O       0.076830    0.846995   -1.463747
C      -1.704649   -0.290197   -0.314325
C      -2.413836   -0.748985   -1.612039
C      -2.547142   -2.253478   -1.440830
C      -1.289613   -3.040398   -1.109810
C      -2.191867   -2.537078   -0.013775
O      -1.841833   -1.342583    0.651004
H       1.604940   -0.157766    0.304244
H       0.288237   -1.016041    1.079778
H      -2.181338    0.601340    0.108744
H      -3.408139   -0.299516   -1.684937
H      -1.837368   -0.436587   -2.485441
H      -3.368491   -2.759536   -1.933732
H      -1.307592   -4.105800   -1.314435
H      -0.319428   -2.574964   -1.245235
H      -2.732876   -3.215152    0.635298
