21

C      -0.083439    1.461350   -0.171163
C       1.289661    0.872433    0.042132
C       0.071423   -0.019984    0.074129
C      -0.395423   -0.690089    1.331309
C      -0.411759   -2.199543    1.367714
C      -1.726815   -1.440318    1.382124
C      -2.285044   -1.176765    2.738047
C      -1.463294   -0.422075    3.470724
C      -0.237811    0.006906    2.691473
H      -0.500450    2.075690    0.619585
H      -0.358418    1.785614   -1.168914
H       1.962752    0.799018   -0.805072
H       1.786544    1.086287    0.982608
H      -0.063548   -0.641720   -0.807498
H      -0.137116   -2.710725    0.449793
H      -0.117985   -2.714251    2.277507
H      -2.380091   -1.507357    0.518475
H      -3.227918   -1.591564    3.076923
H      -1.617063   -0.145195    4.507552
H       0.693901   -0.281665    3.194940
H      -0.201628    1.100390    2.590662
