18

O      -1.050939    0.534933   -0.430412
C      -0.546125    1.596885   -0.225998
O       0.768439    1.744092    0.027500
C       1.277490    3.050864    0.266690
C       2.108803    3.208662    1.564626
C       3.134784    3.982794    0.724802
C       3.654892    5.338581    1.003881
N       4.556057    4.165422    0.962710
C       2.517003    3.447580   -0.572448
H      -1.093214    2.560533   -0.222706
H       0.467782    3.784938    0.196472
H       1.639374    3.710209    2.414398
H       2.492100    2.233497    1.881896
H       3.798475    6.048902    0.193593
H       3.423707    5.788926    1.966499
H       4.798963    3.874129    1.906976
H       3.040730    2.556390   -0.929420
H       2.367310    4.140928   -1.402530
