15

C       0.470674    0.639489    1.037374
C      -0.123393    0.281019   -0.305806
O       0.399151    0.551976   -1.366836
C      -1.418530   -0.438712   -0.306230
O      -2.243069   -0.523953    0.861033
C      -1.802731   -1.739630    0.293298
C      -2.678001   -2.060880   -0.983925
O      -3.630840   -1.014286   -1.132951
C      -2.297316   -0.779300   -1.573293
H       1.464611    1.063335    0.891338
H      -0.174616    1.365664    1.543190
H       0.524739   -0.236575    1.691445
H      -1.227946   -2.427975    0.901469
H      -2.883559   -3.030416   -1.418137
H      -2.108973   -0.468108   -2.591136
