18

C      -0.024607    1.561856   -0.121817
C       0.025618    0.050294    0.010820
O      -1.260331   -0.542246   -0.027047
C       1.062564   -0.688455   -0.889293
O       2.352585   -0.189924   -0.526699
C       1.770283   -1.232014    0.279798
C       0.793499   -0.562567    1.224671
C       0.914354   -0.057947    2.605817
N       0.135076   -1.276433    2.302393
H       0.985886    1.975063   -0.110858
H      -0.503650    1.854787   -1.065320
H      -0.598101    2.002765    0.700007
H      -1.769422   -0.111047   -0.721583
H       0.923367   -1.090262   -1.886998
H       2.331962   -2.148288    0.413691
H       1.823550   -0.224732    3.177063
H       0.381732    0.856431    2.857881
H      -0.863021   -1.078431    2.269088
