14

N      -0.021348    1.359804   -0.079457
C      -0.027886    0.004941   -0.052807
N      -1.165647   -0.661175   -0.067004
C      -1.054069   -2.008137   -0.069816
N      -2.227725   -2.715796   -0.158190
H      -3.054378   -2.227330    0.145025
H      -2.159520   -3.685236    0.108319
N       0.072933   -2.718475   -0.026354
N       1.222841   -2.021259   -0.006579
C       1.197277   -0.721983   -0.027699
O       2.358003   -0.014876   -0.004686
H       0.837799    1.844607    0.112720
H      -0.895167    1.839845    0.057553
H       3.071534   -0.667877    0.028983
