18

C      -0.046713    1.042660    0.902447
C      -0.155878    0.330478   -0.444674
O       0.981593   -0.489276   -0.702359
C      -1.464770   -0.436591   -0.583832
C      -1.609377   -1.630027   -1.459179
C      -1.748127   -1.806373    0.049804
C      -0.727721   -2.590006    0.783930
O      -0.930859   -3.129545    1.846685
H       0.875900    1.628840    0.951531
H      -0.891023    1.720865    1.057937
H      -0.049526    0.318083    1.725630
H      -0.156266    1.087513   -1.242077
H       1.391053   -0.712585    0.139141
H      -2.327395    0.224529   -0.536150
H      -2.500584   -1.750204   -2.064153
H      -0.696476   -2.021107   -1.896026
H      -2.744734   -1.929877    0.461065
H       0.255407   -2.677562    0.275113
