14

C       0.043459    1.478550    0.123800
O       1.361068    2.061788    0.040645
C       2.162914    1.417791   -0.827147
C       2.008149    0.092038   -1.182822
N       3.077223   -0.121975   -1.989691
N       3.828382    0.989086   -2.117461
N       3.269107    1.934518   -1.392387
C       0.958285   -0.714171   -0.615148
C       0.026126   -0.035629    0.071577
H      -0.371358    1.844304    1.065704
H      -0.573988    1.890361   -0.693563
H       3.345056   -0.950756   -2.495895
H       0.955628   -1.795252   -0.693455
H      -0.790630   -0.540336    0.575348
