14

C      -0.128809   -1.194863   -0.347073
C      -0.050718   -0.021622   -0.097486
C       0.060390    1.397446    0.179685
O       0.057420    1.729009    1.595571
C       1.293718    2.474930    1.502723
C       1.444620    2.061046    0.045060
C       2.597965    1.696382   -0.766083
O       1.829479    2.891981   -1.016257
H      -0.206826   -2.232623   -0.559908
H      -0.717604    1.958528   -0.356183
H       1.143933    3.551785    1.648701
H       2.050255    2.106588    2.204320
H       3.603402    1.862818   -0.383129
H       2.498534    0.913413   -1.515203
