16

O       0.033916    1.238519    1.110328
C       0.067974    0.129375    0.265874
C      -0.521641   -1.195192    0.654220
C      -1.168310   -0.364058   -0.454893
C      -2.467916    0.301607   -0.208851
C      -2.770660    1.630909   -0.261872
O      -4.068401    1.839059   -0.002193
N      -4.683182    0.612143    0.238432
C      -3.733211   -0.278333    0.115356
H      -0.828756    1.270107    1.538195
H       0.999545    0.129248   -0.289293
H      -0.003208   -2.108963    0.385061
H      -1.049532   -1.241044    1.601955
H      -1.019193   -0.726717   -1.468752
H      -2.179120    2.509616   -0.467062
H      -3.968938   -1.323475    0.261261
