19

C       0.029960    1.595067    0.010762
C       0.065017    0.097580   -0.010964
C       0.587002   -0.768296   -1.164427
C       1.218363   -1.770484   -0.146270
C       0.691918   -0.912277    1.011497
C       1.298813   -0.693105    2.274719
C       1.770445   -0.515280    3.370454
C      -0.815873   -0.746582    0.863151
O      -1.475098   -0.082192    1.892200
H       1.018310    2.021987   -0.189646
H      -0.658287    1.970520   -0.756660
H      -0.320051    1.955318    0.980168
H      -0.179911   -1.169336   -1.835783
H       1.342661   -0.257790   -1.765483
H       0.849071   -2.800906   -0.171548
H       2.308329   -1.785739   -0.194670
H       2.213876   -0.347830    4.320569
H      -1.386279   -1.573655    0.430211
H      -1.075218   -0.349740    2.729636
