20

C       0.328835    1.408788   -0.231619
C       0.337277   -0.110526   -0.054052
C       0.248500   -0.527372    1.428527
C       0.254357   -1.972726    1.624368
C       0.255510   -3.171178    1.745166
C       0.258885   -4.618187    1.929467
N       1.562912   -5.118994    2.356394
C       2.145696   -6.204496    1.783681
O       1.640815   -6.896065    0.924536
H       1.176292    1.874562    0.283805
H       0.391822    1.682375   -1.288931
H      -0.588248    1.851647    0.172781
H      -0.501301   -0.559354   -0.597758
H       1.248719   -0.537245   -0.487041
H       1.086296   -0.081183    1.981636
H      -0.661864   -0.102011    1.872302
H      -0.515166   -4.904705    2.655036
H       0.025145   -5.142557    0.997262
H       2.082906   -4.580578    3.030416
H       3.153837   -6.395816    2.201360
