19

O       1.402947   -0.312656   -0.103341
C       0.699821    0.661006   -0.019221
C       1.181038    2.076019    0.119474
C       0.576691    3.118742   -0.874655
C       0.448983    4.109273    0.302241
C       1.408928    5.312879    0.426341
C       0.116894    6.149740    0.490052
O      -0.699304    4.963853    0.369447
C       0.552103    2.916503    1.276502
H      -0.414176    0.570881   -0.039892
H       2.272303    2.088143    0.133045
H       1.177772    3.406979   -1.740045
H      -0.419000    2.811483   -1.212317
H       2.022720    5.325773    1.328966
H       2.043230    5.492283   -0.443782
H      -0.066829    6.676330    1.433444
H      -0.046458    6.842953   -0.342905
H      -0.450328    2.553819    1.528338
H       1.132781    3.037169    2.193853
