16

C      -0.297196    1.504523    0.035236
C      -0.079990    0.017222   -0.003824
C      -0.089949   -0.651664   -1.190989
N       0.284504   -1.936488   -1.490226
C       0.300672   -2.919771   -0.657271
N      -0.238741   -3.013962    0.604863
C      -0.355941   -2.029085    1.413924
C       0.153800   -0.636342    1.291407
N       0.586662    0.033637    2.296160
H       0.607704    2.009235    0.388938
H      -0.561028    1.894809   -0.950295
H      -1.086123    1.763667    0.749492
H      -0.309421   -0.064713   -2.081309
H       0.696944   -3.865373   -1.024648
H      -0.883758   -2.230092    2.352150
H       0.593671   -0.544235    3.141171
