14

C       0.015474    1.532386    0.030151
C      -0.034014    0.033483    0.013632
C      -1.178358   -0.676946   -0.150966
N      -1.135339   -2.049966   -0.152454
C       0.020931   -2.804289    0.005316
O       0.034959   -4.018378    0.000449
C       1.182229   -1.906612    0.173020
F       2.332927   -2.534471    0.330531
N       1.166937   -0.630254    0.178227
H       0.669698    1.906791   -0.764202
H      -0.978525    1.965419   -0.107368
H       0.423465    1.895820    0.979254
H      -2.152078   -0.224450   -0.284559
H      -1.981690   -2.589322   -0.274297
