25

C       0.092881    1.549106   -0.041154
C       0.077014    0.043581    0.014033
C       0.039817   -0.702307   -1.094959
C       0.003246   -2.210861   -1.154205
C      -1.391431   -2.846347   -0.952669
C      -1.973490   -2.815093    0.474318
C      -2.392439   -1.430618    1.022838
C      -1.384985   -0.735210    1.954748
C       0.046295   -0.576773    1.390676
H       0.996562    1.951134    0.435835
H       0.058478    1.918900   -1.069583
H      -0.758454    1.980308    0.501753
H       0.012557   -0.190469   -2.056084
H       0.378831   -2.528129   -2.133887
H       0.691921   -2.642961   -0.416265
H      -2.104555   -2.368613   -1.637635
H      -1.327892   -3.896851   -1.264886
H      -2.857384   -3.463934    0.466878
H      -1.267813   -3.294222    1.167418
H      -2.627137   -0.769074    0.181429
H      -3.326614   -1.540415    1.586354
H      -1.785064    0.252232    2.218010
H      -1.316378   -1.294483    2.896815
H       0.524406   -1.561274    1.366377
H       0.630212    0.032023    2.092067
