25

C       0.406862   -0.952949    1.090759
C      -0.093034   -0.217245   -0.158374
C       0.794499   -0.358610   -1.417070
C       2.234286    0.177215   -1.182790
C       2.349522    1.662398   -0.822776
C       0.857601   -1.833359   -1.930580
C       0.745986   -1.767032   -3.475209
C       0.137274   -0.405429   -3.707404
C       0.157151    0.343257   -2.607410
H       0.554670   -2.020555    0.896850
H       1.356996   -0.547709    1.452623
H      -0.318072   -0.863694    1.906001
H      -1.094484   -0.584686   -0.415259
H      -0.218910    0.846850    0.077391
H       2.709005   -0.421548   -0.395845
H       2.813831   -0.010966   -2.095054
H       3.400141    1.950472   -0.715477
H       1.912507    2.301258   -1.596962
H       1.850432    1.896273    0.123047
H       1.760637   -2.351845   -1.596053
H       0.002076   -2.390481   -1.534007
H       1.725961   -1.846087   -3.966692
H       0.137638   -2.582051   -3.883906
H      -0.237851   -0.086939   -4.674440
H      -0.211647    1.361798   -2.541921
