18

C      -0.168086    1.587536    0.007153
C       0.051276    0.083955   -0.016154
N       0.778447   -0.452478   -1.190782
C       2.238609   -0.036834   -1.153452
C       2.589489   -1.363253   -0.508464
C       1.197428   -1.831150   -0.780601
C       1.616106   -1.633590    0.659125
C       0.814463   -0.488204    1.200659
O       0.734627   -0.113592    2.344339
H       0.772775    2.142077   -0.051704
H      -0.803365    1.901726   -0.824673
H      -0.651025    1.860381    0.949282
H      -0.928769   -0.416590   -0.013447
H       2.617138    0.056031   -2.174816
H       2.460321    0.881238   -0.601242
H       3.522304   -1.910782   -0.568620
H       0.781209   -2.729509   -1.217782
H       1.867950   -2.466190    1.303655
