16

O      -0.054910    0.066070   -0.767861
C      -0.055580    1.149407   -0.224945
N       1.041114    1.761104    0.305065
C       2.371565    1.170856    0.264800
C       3.427158    1.999362   -0.501976
C       4.610776    2.154963    0.467303
O       5.672149    2.672403    0.215863
C       4.193504    1.547235    1.756173
C       2.970719    1.018654    1.648574
H      -0.967651    1.764778   -0.100638
H       0.925823    2.665504    0.736564
H       2.220322    0.188750   -0.194173
H       3.758618    1.528250   -1.430536
H       3.043908    2.989629   -0.766633
H       4.831110    1.549384    2.630996
H       2.419380    0.516107    2.436236
