24

C       0.001067    1.524995   -0.081778
C       0.005294    0.008674   -0.030230
O      -1.351724   -0.430784    0.078421
C      -1.544352   -1.763308    0.048672
N      -2.693534   -2.253204    0.198588
C      -2.827271   -3.695650    0.131253
C      -3.517704   -4.265563    1.383777
C      -3.826686   -5.754690    1.188835
C      -2.681097   -4.028131    2.645717
H       1.025303    1.900831   -0.160927
H      -0.568656    1.878576   -0.945277
H      -0.453315    1.938722    0.822398
H       0.460857   -0.411790   -0.937400
H       0.581225   -0.351084    0.833459
H      -0.629633   -2.353590   -0.123802
H      -3.445554   -3.937243   -0.743851
H      -1.855023   -4.204488   -0.012266
H      -4.465426   -3.723002    1.494876
H      -2.905599   -6.335648    1.056976
H      -4.351899   -6.164407    2.057534
H      -4.455017   -5.922463    0.307399
H      -1.718481   -4.551764    2.580851
H      -2.477993   -2.963449    2.788801
H      -3.198571   -4.397983    3.536980
