15

O      -0.122108    1.326815    0.059535
N       0.026044   -0.064430    0.200634
C      -1.081133   -0.652384    0.044940
C      -2.524600   -0.315871   -0.248317
O      -2.850719   -1.731117   -0.192520
C      -1.485979   -2.077733    0.087086
C      -0.821939   -3.301099   -0.464316
C      -1.095719   -3.179370    1.022880
H       0.776745    1.643858    0.199075
H      -3.043361    0.264667    0.522875
H      -2.719915    0.120859   -1.234215
H      -1.453155   -3.972710   -1.035975
H       0.197970   -3.204401   -0.820288
H      -0.265392   -2.998378    1.696737
H      -1.907535   -3.770684    1.432260
