24

C      -2.140497    0.245162    1.882492
C      -1.155848   -0.570587    1.028675
C      -0.984482    0.059219   -0.363281
C       0.183029   -0.786590    1.742538
C       0.988532    0.467854    2.043664
C       0.252596   -1.894724    2.772826
C       0.994687   -2.040605    1.463102
C       0.620554   -3.112074    0.460633
H      -1.799967    1.277439    2.016476
H      -3.124347    0.287031    1.403441
H      -2.266139   -0.198026    2.875488
H      -1.608750   -1.558706    0.885016
H      -0.597068    1.081495   -0.296826
H      -0.293059   -0.520945   -0.982103
H      -1.945229    0.109422   -0.886650
H       0.435040    1.164287    2.682906
H       1.915632    0.214325    2.567213
H       1.266358    1.003512    1.129361
H       0.817418   -1.729764    3.685003
H      -0.633725   -2.508496    2.909539
H       2.069971   -1.887068    1.530439
H      -0.456358   -3.298114    0.430209
H       0.941159   -2.847681   -0.553556
H       1.103429   -4.061117    0.720353
