27

C      -0.028536    1.577028   -0.104559
C       0.064001    0.047538   -0.004035
C       0.661158   -0.532049   -1.301674
C       0.701683   -2.064112   -1.303875
C       1.442978   -2.595631   -0.072188
C       0.837297   -2.024806    1.215715
C       0.796142   -0.475510    1.274330
C       2.226706    0.087503    1.400862
C       0.008825   -0.079005    2.537608
H       0.957630    2.034116   -0.238515
H      -0.636616    1.861205   -0.970142
H      -0.488797    2.026643    0.779504
H      -0.966033   -0.335257    0.068652
H       0.072962   -0.171120   -2.154392
H       1.675751   -0.137232   -1.449141
H      -0.326678   -2.452286   -1.300318
H       1.168850   -2.431460   -2.224878
H       1.403768   -3.690796   -0.045031
H       2.505652   -2.329781   -0.139962
H      -0.191325   -2.400298    1.312950
H       1.383283   -2.400675    2.090240
H       2.848904   -0.134696    0.529762
H       2.218971    1.173777    1.531988
H       2.725242   -0.342323    2.276933
H       0.456431   -0.536279    3.427459
H       0.002167    1.003241    2.697722
H      -1.031876   -0.417746    2.479180
