11

N       0.052329   -1.122584   -0.005839
C       0.042724    0.031153    0.001774
C      -0.026039    1.489503    0.012032
O       1.315676    1.999146    0.000118
C       1.401201    3.319437    0.007200
N       0.413604    4.169951    0.023677
O       1.044511    5.379445    0.023841
N       2.415481    5.174006    0.007002
N       2.634839    3.936163   -0.003105
H      -0.573519    1.849785   -0.866252
H      -0.553384    1.838248    0.907134
