18

C       0.536687    1.337086    0.004026
O       0.835223   -0.033892   -0.125404
C       0.071391   -0.669566   -1.125240
C       0.413419   -2.126710   -1.122495
C       0.463374   -3.047521    0.109097
C       1.702010   -3.714663   -0.558723
O       2.512096   -4.507932   -0.176058
C       1.599408   -2.824812   -1.775638
N       0.229851   -2.901236   -2.326868
H       0.742007    1.888617   -0.926572
H      -0.518262    1.500795    0.274720
H       1.172265    1.734735    0.798335
H      -1.007988   -0.538258   -0.929910
H       0.273975   -0.248918   -2.122795
H       0.770397   -2.541520    1.028472
H      -0.425636   -3.655592    0.303381
H       2.389999   -2.453424   -2.416323
H      -0.214140   -3.802251   -2.157341
