21

C      -0.019124    1.549694    0.012042
C      -0.023641    0.048047    0.002960
C       0.716348   -0.867004   -1.048395
C       1.725152   -1.276886    0.047210
C       0.652719   -0.879720    1.085566
C      -0.608878   -1.830110    1.042181
C      -0.475577   -2.937662   -0.028311
C      -0.545261   -1.817389   -1.091571
C      -1.259432   -0.894021   -0.039497
H       1.002455    1.947349    0.044707
H      -0.503273    1.954527   -0.885016
H      -0.555724    1.943992    0.883589
H       1.077936   -0.505754   -2.012654
H       2.126568   -2.295038    0.053111
H       2.562479   -0.571978    0.076380
H       0.956086   -0.530103    2.073887
H      -1.067417   -2.059945    2.004475
H       0.389773   -3.607885   -0.006506
H      -1.387171   -3.543399   -0.059103
H      -0.945575   -2.035580   -2.082143
H      -2.310448   -0.606495   -0.069119
