15

C      -0.063002    1.574048   -0.045734
C       0.036984    0.059176    0.038277
N       1.105404   -0.561187   -0.768384
C       1.766911   -1.186376    0.266541
O       2.726276   -1.904766    0.324208
C       0.767650   -0.561033    1.254093
C       0.968741   -0.081121    2.620122
O       0.155569   -1.227401    2.328434
H       0.904431    2.041463    0.160517
H      -0.393512    1.891811   -1.040135
H      -0.794515    1.947275    0.678380
H      -0.939688   -0.411109   -0.126038
H       1.272012   -0.566970   -1.762874
H       1.909284   -0.294457    3.124090
H       0.427759    0.798010    2.966326
