21

C       0.039983    1.542486    0.174427
C      -0.000851    0.005117    0.059670
C       0.598451   -0.481807   -1.272348
C       0.794235   -2.005682   -1.282945
C       1.515037   -2.465492   -0.016559
O       0.840826   -2.023715    1.155667
C       0.783667   -0.615754    1.233650
C      -1.464557   -0.399506    0.198006
O      -2.154499   -0.852306   -0.677546
H       1.077073    1.893061    0.187908
H      -0.466372    2.010772   -0.675088
H      -0.444338    1.893567    1.092717
H      -0.050548   -0.176536   -2.098270
H       1.566050    0.016535   -1.416132
H      -0.180741   -2.498290   -1.339962
H       1.368783   -2.310679   -2.164850
H       1.552506   -3.556322    0.049729
H       2.553396   -2.089267   -0.007741
H       1.800331   -0.185386    1.249693
H       0.305609   -0.377526    2.190927
H      -1.885993   -0.204016    1.213387
