24

C      -0.012886    1.659591   -0.063344
C      -0.153863    0.132869   -0.049750
C       0.660266   -0.527156   -1.154164
N       2.163094   -0.336807   -1.108663
C       2.663111   -1.079167    0.065376
C       2.309167   -1.848549   -1.139386
C       0.798465   -2.089849   -1.273950
C       0.138163   -2.977319   -0.218057
C       0.431530   -2.578061   -2.677782
H       1.033446    1.954262    0.059164
H      -0.364390    2.079438   -1.012139
H      -0.594115    2.118221    0.742325
H       0.132346   -0.252644    0.935076
H      -1.206579   -0.147174   -0.186838
H       0.328537   -0.113262   -2.112770
H       3.717438   -0.894463    0.249169
H       2.062837   -1.150200    0.967399
H       3.060467   -2.326474   -1.762817
H       0.381343   -2.673555    0.803244
H      -0.953013   -2.959255   -0.318836
H       0.461450   -4.017706   -0.338476
H       0.725773   -3.624676   -2.819224
H      -0.649533   -2.511234   -2.844776
H       0.930455   -1.982120   -3.448689
