20

C      -0.067172    1.495882    0.136369
C       0.032041    0.007430    0.013529
C       0.020565   -0.744734   -1.095432
C      -0.094654   -0.307400   -2.522270
C       0.080681   -2.223222   -0.770549
C       0.509288   -2.240695    0.723800
C       0.101684   -0.841820    1.266126
C      -0.037548   -3.357682    1.487085
N      -0.478199   -4.240202    2.090240
H       0.800511    1.905458    0.669150
H      -0.131499    1.993813   -0.833577
H      -0.951836    1.782581    0.719797
H      -0.150665    0.778467   -2.625345
H       0.761738   -0.658698   -3.111905
H      -0.989856   -0.735419   -2.991988
H      -0.899972   -2.697653   -0.911659
H       0.786023   -2.776756   -1.400193
H       1.601084   -2.316947    0.764265
H       0.821134   -0.468368    2.003201
H      -0.872282   -0.876810    1.772926
