19

C      -0.149835    1.626418   -0.259189
C       0.109732    0.174567    0.107214
C       0.744470   -0.685311   -1.022355
N       2.056553   -1.096547   -0.509730
C       2.152894   -0.612708    0.661257
O       1.109781    0.112672    1.162118
C       3.305152   -0.771813    1.565929
C       3.706801    0.363331    2.448436
N       3.085809   -0.829710    3.025347
H       0.758660    2.090624   -0.656122
H      -0.928331    1.684292   -1.027010
H      -0.482404    2.199461    0.610763
H      -0.798396   -0.284030    0.511215
H       0.144006   -1.568972   -1.263938
H       0.864088   -0.112402   -1.949842
H       4.059542   -1.449509    1.183415
H       4.759492    0.495066    2.680470
H       3.123645    1.276623    2.384579
H       2.103764   -0.636964    3.210595
