17

C       0.069593    1.095390    0.347771
O      -0.227640    0.059007   -0.578854
C      -1.401638   -0.612138   -0.287236
C      -1.469964   -2.067476   -0.679412
C      -0.145262   -2.742022   -0.958491
C       0.645485   -2.613847    0.346133
O       1.770722   -2.940540    0.569915
O      -0.147049   -2.033298    1.307518
C      -1.405795   -1.678922    0.785261
H       1.003115    1.554924    0.017670
H      -0.722616    1.857525    0.357816
H       0.196874    0.694856    1.360393
H      -2.316512   -0.025625   -0.390220
H      -2.376552   -2.452720   -1.128299
H      -0.265608   -3.802542   -1.197763
H       0.433993   -2.278351   -1.759722
H      -2.209849   -1.800798    1.499963
