18

N      -0.120638    1.337263    0.116822
C       0.058998   -0.012892    0.044421
O       1.162426   -0.524064    0.010509
C      -1.230724   -0.826824    0.009589
C      -0.948108   -2.319338   -0.070357
O      -2.193827   -2.992104   -0.098164
C      -2.070846   -4.387576   -0.172084
C      -3.466268   -4.986152   -0.195115
O      -3.686643   -6.166072   -0.255662
H       0.694006    1.927850    0.142587
H      -1.030658    1.761718    0.144644
H      -1.828151   -0.611038    0.903490
H      -1.838727   -0.519168   -0.849614
H      -0.359791   -2.549423   -0.970263
H      -0.349227   -2.641910    0.793462
H      -1.531497   -4.710214   -1.079159
H      -1.520898   -4.802984    0.689757
H      -4.276098   -4.224425   -0.150328
