17

O       0.009238    0.060429    0.477689
C      -0.048477    1.209095    0.114231
C      -1.403484    1.858211   -0.193933
C      -1.405341    2.990285   -1.190118
C      -0.692646    4.116651   -1.103214
C       0.270413    4.454959   -0.030631
O       0.106070    3.851866    1.266883
C       1.223388    3.443029    0.479773
C       1.236993    2.024932   -0.063692
H      -2.070305    1.051647   -0.506759
H      -1.770137    2.216840    0.775466
H      -2.055905    2.865641   -2.051218
H      -0.780728    4.859752   -1.891288
H       0.574168    5.499858    0.016642
H       2.181853    3.795499    0.861859
H       2.040596    1.442833    0.392933
H       1.437130    2.063971   -1.144137
