14

N       0.149552    1.327640    0.103674
C      -0.011636   -0.029671    0.031050
C      -1.156787   -0.796163    0.021226
N      -2.459272   -0.227724   -0.005268
C      -0.705870   -2.148042    0.020785
C       0.661198   -2.115163    0.021832
O       1.090937   -0.794763    0.039446
C       1.640509   -3.119398    0.000711
N       2.434932   -3.965765   -0.016816
H       0.977696    1.688579   -0.349040
H      -0.697881    1.820587   -0.145809
H      -2.932933   -0.319265    0.888628
H      -3.047822   -0.672777   -0.701577
H      -1.311440   -3.041357    0.008286
