15

O       0.252364    0.214228   -0.859803
C       0.097852    1.238238   -0.267359
C      -1.143911    2.022765    0.224100
C      -0.198315    3.141752    0.736891
C       0.348846    2.888876    2.164229
O       1.415940    2.042475    1.639690
C       1.053301    2.333864    0.269745
C       0.858404    4.049672    2.872820
C       1.265495    5.021534    3.450859
H      -1.776146    2.328246   -0.615712
H      -1.773860    1.522593    0.965238
H      -0.406957    4.167612    0.447705
H      -0.320940    2.313319    2.815583
H       1.892271    2.687043   -0.334075
H       1.629607    5.873891    3.969960
