23

C      -0.056814    1.558438   -0.159585
C       1.404631    2.052033    0.047690
C       2.226786    0.785368    0.363177
C       2.218625    0.367417    1.873525
C       1.300502   -0.872179    1.900981
C      -0.131750   -0.426539    1.539942
C      -0.008918    0.030225    0.045896
C       1.449136   -0.386804   -0.301455
C       1.728031   -1.593773    0.606025
H      -0.765127    2.036097    0.524550
H      -0.396954    1.794221   -1.173187
H       1.777412    2.528412   -0.864876
H       1.489750    2.797805    0.844236
H       3.252882    0.875045   -0.002779
H       3.227290    0.103468    2.207926
H       1.860164    1.169678    2.527221
H       1.366098   -1.453804    2.823128
H      -0.828094   -1.266464    1.632289
H      -0.499622    0.372509    2.192346
H      -0.753980   -0.478285   -0.571465
H       1.642701   -0.511264   -1.369178
H       2.778968   -1.901831    0.608278
H       1.108771   -2.465994    0.371243
