17

C      -0.086458   -1.252671   -0.083241
C      -0.034763   -0.052324   -0.023656
C       0.000985    1.392565    0.028031
C       0.086163    2.129418    1.409624
C       1.561191    1.652158    1.520084
C       1.396088    2.147987    0.043832
C       0.613059    3.366780    0.633982
C       2.377184    2.157018   -1.000176
C       3.198218    2.164062   -1.879464
H      -0.126967   -2.312487   -0.135945
H      -0.718859    1.827522   -0.672200
H      -0.675083    2.110138    2.187810
H       2.222585    2.253266    2.148041
H       1.729825    0.583107    1.652872
H      -0.083882    3.868951   -0.041900
H       1.211983    4.080490    1.203121
H       3.923499    2.167433   -2.655002
