23

C      -0.019316    1.569450    0.005055
C      -0.005765    0.039987   -0.047899
C       0.715636   -0.510252   -1.291561
O       2.066727   -0.039349   -1.356132
C       0.648274   -2.011823   -1.382074
C      -0.032223   -2.718689   -2.286002
C       0.067019   -4.207790   -2.062124
C       1.232557   -4.323826   -1.046740
C       1.336521   -2.927483   -0.383271
H       0.998304    1.965619   -0.040830
H      -0.574659    1.986179   -0.842538
H      -0.491216    1.930126    0.923985
H       0.483696   -0.360883    0.851258
H      -1.029489   -0.353310   -0.038615
H       0.240580   -0.087111   -2.184716
H       2.519157   -0.342442   -0.561339
H      -0.627887   -2.284331   -3.082782
H      -0.873708   -4.603827   -1.652482
H       0.257117   -4.768426   -2.984383
H       1.088833   -5.127831   -0.320566
H       2.160779   -4.536468   -1.586181
H       2.377703   -2.643878   -0.186858
H       0.821726   -2.899637    0.587804
