14

C       0.102954    1.420020    0.132508
N       0.061770   -0.024378    0.033998
N      -0.027353   -0.661427   -1.119609
N      -0.040719   -1.945384   -0.844068
C       0.043615   -2.021628    0.503743
N       0.064270   -3.177643    1.262819
C       0.004425   -4.488190    0.827366
O      -0.077620   -4.858331   -0.312523
N       0.110126   -0.828934    1.093617
H       1.034584    1.732213    0.609280
H       0.047508    1.813521   -0.881516
H      -0.744194    1.775159    0.723207
H       0.131626   -3.023826    2.257926
H       0.043486   -5.173369    1.697357
