19

C      -0.091222    1.414259    0.043012
N      -0.074268   -0.031923    0.058730
C      -0.098392   -0.820214   -1.081266
C       0.028316   -2.138001   -0.700023
N      -0.047205   -3.277646   -1.526208
C       0.153856   -2.148578    0.717119
C       0.095034   -0.839199    1.155745
C       0.186896   -0.326238    2.561293
O      -0.188379   -1.310680    3.509895
H       0.910344    1.842668    0.174317
H      -0.486983    1.752059   -0.916960
H      -0.739409    1.806652    0.831786
H      -0.216506   -0.372809   -2.055428
H       0.194894   -3.072073   -2.487472
H       0.555127   -4.022147   -1.197289
H       0.271905   -3.014355    1.350850
H       1.216562   -0.049908    2.826052
H      -0.417474    0.589822    2.674811
H      -1.013165   -1.698717    3.196724
