22

C       0.150225    1.595758    0.154023
C      -0.016262    0.078670    0.032453
C       0.884918   -0.513503   -1.053108
C       0.783598   -2.005948   -1.239124
N       0.005308   -2.654481   -0.460793
O      -0.006375   -4.036338   -0.748155
C       1.586150   -2.663320   -2.347605
C       0.700339   -2.961050   -3.565314
O       2.657354   -1.785483   -2.679918
H       1.181948    1.865058    0.407261
H      -0.099731    2.101694   -0.785624
H      -0.500257    2.004206    0.933687
H       0.207464   -0.402026    0.990654
H      -1.060834   -0.168900   -0.185834
H       0.677259   -0.035764   -2.021317
H       1.936291   -0.271668   -0.852941
H      -0.594578   -4.375214   -0.065819
H       1.975149   -3.613287   -1.956123
H       0.278163   -2.035817   -3.968995
H       1.291066   -3.441975   -4.354161
H      -0.111464   -3.636263   -3.286907
H       3.126234   -2.170381   -3.426484
