18

O       0.534427    1.331840    0.154939
C       0.088892   -0.001568    0.043514
C       0.648888   -0.542969   -1.283221
C       0.140995    0.181020   -2.446395
N      -0.272188    0.729898   -3.374997
C       0.568310   -0.850451    1.235001
C      -0.134971   -0.455090    2.514937
C       0.589769   -0.092185    3.738770
O       0.005258    0.922627    2.915453
H       0.391900    1.613709    1.068727
H      -1.012528   -0.046682   -0.006047
H       1.741383   -0.462413   -1.264705
H       0.392524   -1.602007   -1.394835
H       0.378498   -1.914439    1.048948
H       1.650986   -0.714840    1.337655
H      -1.156329   -0.822398    2.621130
H       0.116082   -0.219897    4.709983
H       1.677986   -0.121123    3.741798
