15

N      -0.076742    1.454506   -0.013538
C      -0.036940    0.013662   -0.037757
C       0.828004   -0.507502    1.019264
N       1.542481   -0.918401    1.829601
C      -1.383987   -0.721782   -0.084785
C      -1.723123   -0.790143   -1.580713
O      -0.688531   -0.106706   -2.301150
C       0.242761   -0.757259   -1.404598
C      -0.828052   -1.820223   -0.990831
H       0.853531    1.849064    0.084989
H      -0.461697    1.767653   -0.901311
H      -2.122712   -0.792241    0.701909
H      -2.723376   -0.819339   -1.989722
H       1.242986   -0.891114   -1.808836
H      -0.842440   -2.897394   -0.928946
