18

C      -0.073692    1.490389   -0.015751
C       0.052451   -0.016683    0.098477
O       0.767002   -0.473062   -1.071259
C       0.941112   -1.811234   -1.204269
N       1.261606   -2.279206   -2.330192
O       0.723067   -2.571572   -0.100726
C       0.858782   -2.040477    1.233735
C       0.872968   -0.509614    1.290886
O       2.182532    0.027847    1.268284
H       0.909962    1.962768    0.027724
H      -0.556389    1.758020   -0.958393
H      -0.678830    1.875211    0.810336
H      -0.941233   -0.483993    0.114227
H       1.418423   -3.281628   -2.249903
H       0.005623   -2.439467    1.790759
H       1.783241   -2.433313    1.668760
H       0.427757   -0.185895    2.236926
H       2.494199   -0.007092    0.354682
