18

N       0.091208    1.169209    0.192205
C       0.056698   -0.086043    0.073072
C      -0.995576   -0.880104   -0.671356
C      -0.804091   -2.304991   -0.133984
C       0.679007   -2.311430    0.286003
C       1.624694   -2.817364   -0.820590
C       3.030906   -2.767536   -0.444603
C       4.186971   -2.737586   -0.119644
O       0.980607   -0.943046    0.608760
H       0.913440    1.454992    0.726945
H      -1.988769   -0.463471   -0.503394
H      -0.794530   -0.818933   -1.746494
H      -1.435376   -2.471135    0.743229
H      -1.033235   -3.084715   -0.863660
H       0.854803   -2.893130    1.194587
H       1.342739   -3.850995   -1.060012
H       1.458991   -2.229299   -1.732559
H       5.210145   -2.703125    0.161949
