13

N       0.042222    1.407814    0.149200
C       0.017776    0.033273    0.041584
C      -1.085536   -0.809746    0.013508
O      -0.651586   -2.119321   -0.026501
C       0.686114   -2.089662   -0.026309
C       1.167439   -0.815915    0.014713
C      -2.494498   -0.532431    0.014085
O      -3.394527   -1.347813   -0.015517
H       0.871774    1.853988   -0.211405
H      -0.800463    1.893218   -0.117763
H       1.179423   -3.048710   -0.057907
H       2.203101   -0.513969    0.030362
H      -2.713014    0.562169    0.045068
