17

O       0.020616    1.433012   -0.000227
C       0.052680    0.025950    0.036400
C      -1.363975   -0.559144    0.048834
O      -1.985556   -0.061514   -1.126939
C      -3.260939   -0.615141   -1.391395
C      -3.230714   -2.140848   -1.484949
O      -4.050846   -2.754066   -2.134547
C      -2.192346   -2.792492   -0.663286
C      -1.370968   -2.058941    0.096777
H      -0.554348    1.668821   -0.738219
H       0.597729   -0.397226   -0.822153
H       0.578246   -0.264266    0.951902
H      -1.884814   -0.161572    0.941138
H      -3.989288   -0.332353   -0.610653
H      -3.607037   -0.202442   -2.341082
H      -2.184578   -3.877665   -0.656845
H      -0.671286   -2.530511    0.783788
