25

C      -0.026493    1.583576    0.016514
C       0.045319    0.054950    0.030761
C       0.789612   -0.551844   -1.182017
C       1.307739   -1.932150   -0.716843
C       2.521584   -2.434373   -1.502451
C       1.530497   -1.774194    0.792698
C       1.613657   -3.026357    1.633243
C       2.278914   -0.532769    1.225955
C       0.765777   -0.546606    1.233773
H       0.977292    2.021976    0.045001
H      -0.526905    1.949461   -0.886868
H      -0.580329    1.965042    0.881068
H      -0.981672   -0.337367    0.037655
H       0.152311   -0.624343   -2.068444
H       1.634274    0.090103   -1.461902
H       0.494933   -2.663757   -0.839104
H       3.372308   -1.753657   -1.385659
H       2.839104   -3.426034   -1.163493
H       2.296804   -2.508263   -2.571983
H       2.490907   -3.630555    1.372726
H       1.688713   -2.785652    2.698622
H       0.726469   -3.656676    1.495324
H       2.775154   -0.574179    2.190156
H       2.805788    0.070988    0.493691
H       0.264177   -0.522802    2.196892
