15

C       0.069197    1.541278    0.048975
C       0.025417    0.050350   -0.000846
C      -0.124417   -0.783882   -1.075747
N      -0.352884   -0.597208   -2.425466
O      -0.112281   -2.066024   -0.642049
C       0.051028   -1.964688    0.725170
N       0.131213   -0.735189    1.134719
C       0.116581   -3.159109    1.463481
C       0.170557   -4.185972    2.089826
H       0.886629    1.880442    0.692294
H       0.223675    1.971292   -0.946224
H      -0.859485    1.964269    0.449589
H      -0.097121    0.325872   -2.747204
H       0.061018   -1.315337   -3.006381
H       0.219250   -5.087177    2.649320
