18

N       0.273241    1.135276    0.704608
C       0.077930    0.049104    0.110291
C      -1.145052   -0.760197   -0.258086
C      -0.126258   -1.741949   -0.876426
C       0.056869   -3.165244   -0.317300
C       0.199186   -4.039167   -1.582224
O       0.587789   -3.147873   -2.619516
C      -0.136952   -1.956305   -2.392503
O       0.967751   -0.842212   -0.449864
H       1.269694    1.354591    0.755780
H      -1.720060   -1.137557    0.589089
H      -1.819665   -0.270658   -0.964116
H       0.965184   -3.182771    0.288787
H      -0.780298   -3.474440    0.312755
H       0.964397   -4.813714   -1.499482
H      -0.759518   -4.522323   -1.831555
H      -1.181715   -2.056340   -2.737319
H       0.341925   -1.138705   -2.935271
