23

C      -0.188870    1.603068   -0.059353
C       0.115129    0.105904    0.038606
C       1.350618   -0.690659   -0.327438
C       1.352325   -1.771219   -1.372444
C       2.703219   -0.118211    0.189966
C       2.640004    1.153589    0.990823
C       2.172086   -0.132873    1.614456
C       0.814763   -0.705417    1.109683
C       0.139181   -1.804622    1.881037
H       0.483205    2.121755   -0.748759
H      -1.206164    1.746166   -0.437152
H      -0.135577    2.104704    0.910968
H      -0.747870   -0.475953   -0.289172
H       1.595468   -1.366729   -2.363741
H       2.094925   -2.546427   -1.146353
H       0.374412   -2.257796   -1.446028
H       3.645164   -0.516362   -0.167427
H       3.612843    1.473851    1.356865
H       1.984310    1.977585    0.754820
H       2.652839   -0.543751    2.493986
H      -0.328844   -1.419692    2.796559
H      -0.644815   -2.285950    1.287605
H       0.853748   -2.580538    2.182479
