16

C      -0.117460    1.506326    0.007860
C       0.136897    0.035906    0.029045
O      -0.715822   -0.798254    0.815130
C       0.700893   -0.895206    1.022576
C       1.239560   -1.842337   -0.053181
C       0.671239   -0.844067   -1.140267
C      -0.288680   -1.326496   -2.111303
C      -1.089616   -1.721782   -2.916412
H       0.750385    2.048157   -0.381464
H      -0.975395    1.736243   -0.633608
H      -0.337099    1.867945    1.015769
H       1.066797   -0.721055    2.028125
H       2.328622   -1.913356   -0.087696
H       0.797684   -2.839922   -0.048917
H       1.500484   -0.335636   -1.643607
H      -1.801173   -2.074231   -3.621217
