19

C      -0.168791    1.554693   -0.002772
C       0.031429    0.040132   -0.006779
C       0.899007   -0.507680   -1.189684
C       1.960201   -1.345156   -0.456162
C       1.186311   -1.937970    0.730015
C       0.783957   -0.539957    1.238878
C       2.155560    0.127269    1.258798
O       2.605588    0.969536    1.978720
O       2.852968   -0.403329    0.203569
H       0.786133    2.087836    0.040880
H      -0.691656    1.875375   -0.909540
H      -0.765557    1.873259    0.858071
H      -0.951819   -0.442491   -0.030130
H       0.315038   -1.120273   -1.882119
H       1.375035    0.292069   -1.762630
H       2.569635   -2.011111   -1.064581
H       0.337075   -2.557006    0.429501
H       1.826681   -2.495118    1.418004
H       0.252404   -0.451204    2.183895
