16

O      -0.614880    0.717349   -0.633833
C       0.154734    0.984248    0.250949
C       1.314987    1.958999    0.112672
C       1.359230    2.805740   -1.141212
C       0.237151    3.789520   -1.390377
C       1.496778    4.243378   -0.694537
N       1.491202    4.215255    0.741143
C       1.299149    2.972377    1.285905
O       1.115605    2.710388    2.452958
H       0.077474    0.530972    1.260778
H       2.228067    1.357644    0.231153
H       1.917382    2.443808   -1.994353
H       0.087041    4.098511   -2.418896
H      -0.670698    3.713478   -0.802255
H       2.188667    4.934811   -1.160614
H       1.315151    5.032427    1.305908
