15

N       0.038890    1.379334    0.056210
C      -0.035572    0.018965   -0.041992
C      -1.187056   -0.684945   -0.129627
C      -1.201923   -2.133631   -0.092693
O      -2.221115   -2.793249   -0.053412
C       0.156954   -2.829824   -0.139069
N       0.240660   -4.089102   -0.120968
O       1.277751   -2.049731   -0.303175
C       1.285677   -0.689880    0.083107
H       0.893114    1.842103   -0.209596
H      -0.801248    1.912766   -0.102545
H      -2.152217   -0.191237   -0.184494
H       1.220970   -4.374117   -0.185657
H       2.036235   -0.200880   -0.550559
H       1.635753   -0.600397    1.122986
