14

N      -0.020262    1.494543    0.123910
C       0.046049    0.084511   -0.036302
C       1.229513   -0.636271    0.685679
O       0.973697   -2.036171    0.679634
C       1.531278   -1.458777   -0.500666
C       0.362026   -0.802738   -1.291681
O      -0.911778   -1.480592   -1.148312
C      -1.273355   -0.728667   -0.043308
O      -2.297912   -0.761827    0.550738
H       0.877147    1.940960   -0.032144
H      -0.704140    1.922443   -0.490510
H       1.852078   -0.227424    1.473972
H       2.460892   -1.871469   -0.873608
H       0.541551   -0.426352   -2.296745
