21

C       0.005080    1.536728   -0.118748
C       0.007282    0.002303   -0.028781
C      -1.430205   -0.524922   -0.049214
C       0.882734   -0.573627   -1.184205
C       2.253692   -0.711521   -0.570832
C       2.210568   -0.652945    0.756788
C       0.783983   -0.486346    1.257731
C       0.642016    0.349676    2.443725
C       0.528844    1.019294    3.436417
H       1.024044    1.935496   -0.109701
H      -0.477190    1.855629   -1.048938
H      -0.536978    1.983704    0.718430
H      -1.950176   -0.210373   -0.960677
H      -1.455793   -1.619418   -0.010417
H      -1.998663   -0.143726    0.806077
H       0.509479   -1.554083   -1.514647
H       0.868015    0.075050   -2.067906
H       3.149522   -0.875950   -1.159450
H       3.048361   -0.751444    1.436346
H       0.398748   -1.484521    1.522741
H       0.432061    1.613780    4.310858
