19

O      -0.077945    1.378339    0.218742
C       0.061091    0.028736   -0.176349
C      -1.275737   -0.692935   -0.182359
O      -2.101165   -0.003228   -1.125557
C      -3.392705   -0.465487   -1.196311
C      -3.789646   -1.756134   -1.886153
C      -4.362601   -0.438393   -2.342503
O      -5.452912   -0.048432   -1.502970
C      -4.563198    0.051045   -0.355945
H      -0.768210    1.749041   -0.343264
H       0.517162   -0.055976   -1.175682
H       0.733816   -0.451219    0.541873
H      -1.159689   -1.746377   -0.474601
H      -1.730462   -0.652592    0.817281
H      -3.014428   -2.154200   -2.534419
H      -4.431382   -2.491189   -1.407684
H      -4.318266   -0.043287   -3.349973
H      -4.906523   -0.549699    0.493648
H      -4.434645    1.097043   -0.055198
