19

C       0.043033    1.448262    0.051952
C      -0.030413   -0.048362   -0.001782
O       0.967283   -0.633845   -0.818430
C       0.484511   -1.911934   -1.246657
C      -0.658267   -2.206247   -0.290615
O      -0.088665   -2.224356    1.055412
C      -0.476110   -0.860011    1.212347
C      -1.322398   -0.824548   -0.044225
C      -2.711749   -0.381881   -0.387606
H       1.035466    1.765855    0.386056
H      -0.142076    1.887512   -0.933657
H      -0.694748    1.849370    0.753307
H       0.142304   -1.871601   -2.293527
H       1.293553   -2.643152   -1.158774
H      -1.272307   -3.084106   -0.499807
H      -0.626106   -0.480776    2.218459
H      -2.896977    0.637446   -0.034375
H      -2.874264   -0.385780   -1.472109
H      -3.466197   -1.033547    0.067016
