15

O       0.096533    1.364830    0.097924
C       0.068494    0.007357    0.029767
C       0.072787   -0.669936   -1.191774
C       0.043451   -2.058643   -1.218079
C       0.009455   -2.792758   -0.030152
C       0.005291   -2.117801    1.180018
C       0.034420   -0.718355    1.234012
C       0.028696   -0.039506    2.547715
O       0.000408   -0.626683    3.608057
H       0.117954    1.727861   -0.793657
H       0.099201   -0.103235   -2.119181
H       0.047227   -2.569972   -2.175163
H      -0.013336   -3.875983   -0.056803
H      -0.020599   -2.646778    2.126496
H       0.053411    1.066284    2.509584
