22

C       0.082042    1.441744   -0.144123
N       0.272278    0.010319   -0.019051
C       0.353557   -0.620503    1.189606
O       0.302421   -0.024517    2.252038
C       0.488863   -2.140288    1.111620
C       1.348057   -2.701851    2.248363
C       1.360146   -4.231460    2.284518
C       2.208992   -4.786194    3.420704
O       2.156626   -6.204106    3.356261
H       0.902580    1.906391   -0.702280
H      -0.861979    1.679859   -0.647739
H       0.060078    1.852780    0.865785
H       0.322183   -0.546390   -0.855553
H      -0.525234   -2.557687    1.179331
H       0.884558   -2.447142    0.135543
H       2.373367   -2.323251    2.145486
H       0.968265   -2.294550    3.190806
H       0.338445   -4.615954    2.395871
H       1.742665   -4.636265    1.338862
H       3.244915   -4.421161    3.323137
H       1.824658   -4.415572    4.384984
H       2.679665   -6.556863    4.081770
