13

N       0.105336    1.377033    0.138079
C      -0.062497    0.001710    0.039612
C      -1.186551   -0.801909    0.023081
C      -0.650633   -2.104727   -0.001923
N       0.669711   -2.148742   -0.006950
N       1.007691   -0.845032    0.026527
N      -1.422611   -3.333097   -0.034917
O      -2.643166   -3.195401   -0.016958
O      -0.825772   -4.395941   -0.077786
H       0.775712    1.762736   -0.515646
H      -0.769759    1.877497    0.067683
H      -2.222404   -0.514211    0.014888
H       1.982741   -0.598503    0.080624
