23

C      -0.152822    1.552842   -0.036543
C       0.034103    0.041492    0.021049
C       1.060365   -0.630975   -0.920895
C       0.710146   -1.205481   -2.264109
C       2.465924   -0.245227   -0.538806
C       1.751117   -1.287880    0.281795
C       0.778758   -0.603228    1.218572
C       1.069540   -0.008257    2.567287
C       0.142033   -1.198835    2.434906
H       0.797869    2.083742    0.071866
H      -0.600301    1.855616   -0.989742
H      -0.818602    1.899572    0.762241
H      -0.938912   -0.449545   -0.104786
H       0.511749   -0.414650   -2.998479
H       1.526340   -1.819789   -2.659055
H      -0.185438   -1.835482   -2.207812
H       3.235546   -0.622501   -1.206126
H       2.696464    0.724504   -0.104536
H       2.118955   -2.303067    0.384924
H       2.052446   -0.168627    2.999148
H       0.627544    0.952797    2.811360
H      -0.921063   -1.039251    2.589851
H       0.499286   -2.164182    2.780555
