15

O       0.097050    1.432819   -0.041398
C      -0.036026    0.062316    0.036617
C       1.020234   -0.594875   -0.722147
N       1.847026   -1.140914   -1.316471
C      -0.432052   -0.770299    1.253747
C      -1.614194   -0.173405    2.060144
N      -2.020889    1.130256    1.461268
C      -2.468421   -0.157912    0.857880
C      -1.325237   -0.754870   -0.002829
H      -0.648209    1.776161    0.492116
H       0.191610   -1.568965    1.633646
H      -1.843691   -0.402543    3.091755
H      -2.791461    1.501682    2.013743
H      -3.520812   -0.372087    0.731390
H      -1.488272   -1.539962   -0.729601
