23

C      -0.285586    1.528617   -0.002534
C       0.020289    0.045648    0.071615
C       1.321344   -0.622863   -0.319955
C       2.598835    0.208724   -0.389130
C       2.734338    0.901953    0.988443
C       1.818177    0.119867    1.965980
O       1.101127    0.950925    2.876405
C       0.840770   -0.681913    1.119538
C       0.273164   -1.929771    1.757746
H       0.595895    2.162846    0.090348
H      -0.754217    1.763870   -0.965094
H      -0.981009    1.821024    0.790360
H      -0.845105   -0.548791   -0.217645
H       1.264720   -1.502263   -0.954884
H       3.447994   -0.460117   -0.567530
H       2.593735    0.931956   -1.212806
H       3.772568    0.918809    1.334382
H       2.397005    1.940533    0.956242
H       2.425323   -0.601822    2.536907
H       1.737272    1.356948    3.473580
H      -0.324062   -1.675972    2.640779
H      -0.372017   -2.476945    1.063354
H       1.069847   -2.611644    2.080601
