25

C       0.760408   -0.534104    1.393727
C       0.051589   -0.281038    0.058133
C       0.848179   -0.624286   -1.232759
C       0.994729   -2.150447   -1.366489
C       0.049909   -0.086948   -2.447032
O      -1.283072   -0.580405   -2.514498
C       2.243148    0.050659   -1.183533
C       3.096642   -0.077811   -2.449668
O       2.025289    1.430964   -0.875312
H       1.109554   -1.567020    1.491511
H       1.617776    0.132436    1.519523
H       0.073934   -0.344567    2.225141
H      -0.875722   -0.865784    0.036649
H      -0.233726    0.776264    0.019601
H       0.003881   -2.606435   -1.437586
H       1.545058   -2.428710   -2.270378
H       1.517030   -2.590568   -0.511353
H       0.067647    1.010784   -2.433769
H       0.519482   -0.417431   -3.378629
H      -1.795691   -0.135472   -1.833694
H       2.799278   -0.423545   -0.359087
H       2.632396    0.426227   -3.301387
H       4.075939    0.386664   -2.281506
H       3.279362   -1.122011   -2.716399
H       2.877281    1.877215   -0.896069
