20

C       0.077623    1.535176    0.009768
C      -0.031704    0.006802   -0.000980
C      -1.503761   -0.436375    0.028160
C       0.697220   -0.636849   -1.215382
C       1.251894   -1.972887   -0.708481
O       1.419372   -2.977912   -1.351835
C       1.456065   -1.825375    0.772117
N       2.150512   -0.538658    1.095249
C       0.693337   -0.618359    1.199782
H       1.125979    1.843163    0.056192
H      -0.369951    1.967131   -0.891698
H      -0.442837    1.961671    0.875093
H      -2.045575   -0.038541   -0.835851
H      -1.595820   -1.527956    0.006832
H      -2.006001   -0.075024    0.932535
H       0.051653   -0.792441   -2.082126
H       1.544984   -0.020076   -1.532057
H       1.619472   -2.698410    1.392201
H       2.565180   -0.636768    2.019448
H       0.226684   -0.571832    2.180144
