18

C      -0.006353    1.528609    0.058642
C       0.020860    0.008787    0.014291
C       0.710536   -0.539106   -1.255911
C       0.872024   -2.049557   -1.180099
O       0.565701   -2.793179   -2.082277
C       1.427490   -2.534215    0.149428
C       0.686071   -1.847033    1.312205
O       0.701519   -0.440060    1.178476
H       1.012943    1.927083    0.055735
H      -0.539677    1.928745   -0.808398
H      -0.507300    1.872389    0.967367
H      -1.014053   -0.375801    0.037018
H       0.152442   -0.281579   -2.159535
H       1.709278   -0.086513   -1.320750
H       1.347937   -3.622709    0.204262
H       2.487847   -2.256212    0.202725
H      -0.352054   -2.215937    1.358603
H       1.166373   -2.075651    2.267240
