14

N      -0.132478    1.326654   -0.207770
C      -0.018407    0.055570   -0.085546
N       1.200308   -0.627527   -0.161271
C       1.541450   -1.953142    0.166266
O       2.594764   -2.177455    0.711936
N       0.736206   -2.999472   -0.301305
C      -0.538311   -3.022972   -0.263729
C      -1.483765   -2.000541    0.173227
C      -1.256599   -0.678764    0.207854
H       0.764644    1.773589   -0.407418
H       2.011067   -0.029031   -0.055295
H      -1.002308   -3.939984   -0.638277
H      -2.491559   -2.352752    0.374608
H      -2.073406   -0.002802    0.435232
