16

C      -0.010880    1.499664    0.095699
O       1.305104    1.959957   -0.244612
C       2.015584    0.884842   -0.826196
C       3.379696    0.497757   -0.236439
O       3.488185   -0.900127   -0.537583
C       2.182318   -1.510901   -0.530805
C       1.240141   -0.354204   -0.467086
C       0.081728   -0.011331    0.078357
H      -0.277196    1.887973    1.087708
H      -0.750846    1.895277   -0.620079
H       2.111692    1.027837   -1.915725
H       4.240994    0.992275   -0.691314
H       3.378945    0.688151    0.847339
H       2.087636   -2.111681   -1.444198
H       2.074407   -2.183862    0.330406
H      -0.670974   -0.656209    0.513864
