21

C      -2.300773    3.324490   -0.184727
C      -1.484323    2.090204   -0.571196
C      -2.276871    0.768564   -0.460682
C      -1.449418   -0.340967   -0.964638
N      -0.798918   -1.202768   -1.375784
N      -2.640859    0.502148    0.932097
C      -3.988729    0.875620    1.366463
C      -3.609860   -0.558629    1.251698
C      -4.240486   -1.460142    0.212380
H      -1.708489    4.231401   -0.336876
H      -3.206302    3.414691   -0.795463
H      -2.599978    3.293824    0.865701
H      -1.130531    2.183140   -1.603896
H      -0.599644    2.004547    0.067158
H      -3.155157    0.838195   -1.125446
H      -4.053535    1.372581    2.330568
H      -4.674826    1.261277    0.612787
H      -3.338934   -1.076919    2.169805
H      -4.588639   -0.910419   -0.666132
H      -3.539324   -2.230308   -0.122198
H      -5.109538   -1.963681    0.648363
