23

C      -0.476279    1.514019    0.018569
C      -0.047221    0.039522    0.012182
C       0.597100   -0.383687   -1.330835
C       1.784782    0.469098   -1.808356
C       3.014600    0.477587   -0.898279
O       2.758700    1.028193    0.391326
C       2.273755    0.083807    1.297739
C       1.273625    0.557511    2.303915
C       0.841271   -0.379151    1.189266
H       0.381973    2.190099    0.008973
H      -1.090972    1.734831   -0.861155
H      -1.074306    1.741105    0.906178
H      -0.968469   -0.550574    0.106278
H       0.913912   -1.432427   -1.250651
H      -0.174277   -0.357560   -2.111462
H       2.106775    0.104168   -2.793118
H       1.461386    1.505350   -1.960087
H       3.426296   -0.538702   -0.796417
H       3.794532    1.105118   -1.343738
H       3.024359   -0.643453    1.612721
H       1.331885    0.174396    3.316775
H       0.981071    1.598176    2.232354
H       0.685471   -1.411970    1.492384
