19

O      -0.341539    1.422892    0.747216
C      -0.034708    0.202051    0.058018
C       1.112546   -0.476044    0.763017
C       1.305734   -1.730407    1.169258
C       0.428971   -2.944076    1.024434
C      -0.430463   -3.027714   -0.241550
C      -1.524246   -1.985403   -0.332611
O      -1.909867   -1.307864    0.872816
C      -1.329154   -0.539015   -0.192734
H      -0.654488    1.168876    1.623768
H       0.319991    0.544148   -0.925530
H       1.893462    0.247939    0.988832
H       2.236663   -1.917810    1.702554
H       1.067213   -3.834131    1.059100
H      -0.229948   -3.011903    1.900037
H       0.201750   -2.960686   -1.136257
H      -0.900882   -4.017824   -0.270830
H      -2.375039   -2.286061   -0.947493
H      -2.051548    0.109233   -0.692647
