20

C       0.011186    1.534918    0.014451
C       0.000235    0.015865   -0.165437
C      -1.394769   -0.591967    0.018817
C      -1.370444   -2.115615   -0.018780
O      -0.450338   -2.772382    0.433206
N      -2.477273   -2.701397   -0.580808
C      -2.620985   -4.136947   -0.680634
C      -3.728364   -4.672490    0.214000
O      -4.447770   -5.590688   -0.076328
H       1.018209    1.939661   -0.123963
H      -0.647548    2.030579   -0.707731
H      -0.326358    1.818643    1.017672
H       0.376784   -0.244092   -1.162180
H       0.676619   -0.462802    0.548422
H      -1.794009   -0.302411    1.000774
H      -2.094678   -0.195178   -0.727126
H      -3.192759   -2.112680   -0.974344
H      -2.797291   -4.468032   -1.709045
H      -1.669541   -4.560914   -0.334252
H      -3.818615   -4.133820    1.185440
