22

C      -0.118582    1.613249    0.052797
C      -0.115993    0.080092    0.035892
C       0.717435   -0.525949    1.173672
C       0.118135   -0.218663    2.577065
O       0.155488   -1.421637    3.330303
C      -0.029039   -2.470869    2.399049
C       0.836930   -2.088270    1.189546
C       0.478992   -2.837317   -0.093268
H       0.899664    2.008586   -0.036195
H      -0.706403    2.016939   -0.777335
H      -0.545385    2.007777    0.981009
H      -1.149716   -0.285850    0.096765
H       0.274458   -0.262569   -0.929041
H       1.724677   -0.099577    1.106947
H       0.669850    0.540736    3.137467
H      -0.924348    0.127786    2.472191
H       0.268767   -3.407647    2.878160
H      -1.090975   -2.556503    2.103629
H       1.873061   -2.332578    1.449905
H      -0.556481   -2.656442   -0.398463
H       1.128522   -2.548896   -0.925632
H       0.595739   -3.916916    0.051454
