20

C      -3.077627   -2.442792   -0.353157
O      -1.687840   -2.113881   -0.341961
C      -0.952314   -2.738860   -1.300510
O      -1.406428   -3.508086   -2.116925
N       0.359110   -2.378586   -1.179121
C       1.338808   -2.729486   -2.173936
C       1.229773   -1.973416   -3.483969
C       2.697357   -3.098468   -1.629517
C       1.786976   -4.167043   -2.184558
H      -3.534479   -2.177743   -1.310337
H      -3.228015   -3.511696   -0.179496
H      -3.525627   -1.862206    0.454145
H       0.556828   -1.612763   -0.553807
H       1.339945   -0.894323   -3.326137
H       2.005672   -2.292285   -4.186193
H       0.254572   -2.159371   -3.943492
H       3.566402   -2.803198   -2.207078
H       2.836938   -3.063767   -0.554652
H       1.308391   -4.841299   -1.485812
H       2.030241   -4.607954   -3.144470
