14

O       0.043225   -0.003213    0.001934
C      -0.030193    1.192245    0.009793
N      -1.150747    2.009850    0.030172
C      -0.741786    3.339938    0.031985
C       0.598739    3.323164    0.013104
C       1.160944    4.700772    0.012722
C      -0.129792    5.516468    0.035250
C      -1.219326    4.715673    0.046244
O       1.084254    2.044903   -0.001009
H      -2.078094    1.624485    0.040849
H       1.788341    4.920694    0.885970
H       1.763517    4.930205   -0.875438
H      -0.132770    6.597002    0.041252
H      -2.252288    5.034266    0.062529
