19

O       0.400749    0.824914   -0.670485
C       0.165879   -0.272172    0.160859
C      -0.031837   -0.051114    1.693415
C      -1.247072   -1.020273    1.640774
C      -1.272875   -0.867293    0.111994
O      -2.217072    0.115980   -0.397849
C      -2.450706   -0.682721   -1.585042
C      -1.723915   -1.885028   -0.940461
O      -0.662045   -2.495245   -1.625455
H      -0.448282    1.287288   -0.726219
H       0.921474   -1.032296   -0.053965
H       0.800928   -0.311674    2.349664
H      -0.337723    0.978072    1.898617
H      -0.993439   -2.043330    1.934320
H      -2.161483   -0.717286    2.154761
H      -3.519297   -0.776932   -1.803156
H      -1.914434   -0.289079   -2.456498
H      -2.424170   -2.624228   -0.528779
H      -1.014697   -3.177808   -2.204117
