17

O       0.149442    1.413007    0.008357
C       0.094457    0.006277   -0.105443
C      -1.333502   -0.526498    0.012207
C      -1.595137   -2.045801   -0.095037
N      -0.892895   -2.681472    1.035201
C      -2.250203   -2.078215    1.253140
C      -2.006317   -0.614418    1.397425
N      -2.371256    0.184559    2.307743
O      -1.956673    1.508045    2.013805
H      -0.343908    1.657044    0.803456
H       0.485296   -0.240671   -1.100013
H       0.731783   -0.498782    0.633387
H      -1.989369    0.036833   -0.662100
H      -1.852884   -2.599968   -0.988008
H      -1.042005   -3.688297    0.958117
H      -3.071420   -2.669805    1.633438
H      -2.255789    1.997398    2.787451
