18

C      -0.070157    1.612614    0.005754
C       0.013071    0.096471    0.006202
O      -1.268545   -0.501587   -0.142100
C       1.070861   -0.627379   -0.885735
C       2.456438   -0.244698   -0.338539
N       2.671707   -1.506446    0.444234
C       2.197640   -0.260362    1.133980
C       0.711538   -0.652214    1.172925
C       1.178357   -1.764508    0.180840
H       0.911557    2.065714    0.169434
H      -0.451829    1.980266   -0.955119
H      -0.751110    1.955998    0.790694
H      -1.626595   -0.228581   -0.993843
H       0.927925   -0.779631   -1.954636
H       3.273877    0.278814   -0.818815
H       2.800581    0.248560    1.875707
H       0.209181   -0.826925    2.121436
H       0.795224   -2.777298    0.103459
