21

C      -0.077877    1.641811    0.011479
C       0.028093    0.112951    0.002353
C      -1.354756   -0.550903    0.012194
C      -1.366301   -2.108411    0.003874
C      -0.710915   -2.681528   -1.273207
C      -0.686836   -2.695290    1.261957
C      -2.780770   -2.524306    0.015152
N      -3.891422   -2.845411    0.023453
H       0.912583    2.106536    0.004386
H      -0.624575    2.006250   -0.864959
H      -0.607524    1.996878    0.902117
H       0.592534   -0.202608   -0.882655
H       0.609489   -0.211913    0.872895
H      -1.908890   -0.211672    0.895924
H      -1.925876   -0.202205   -0.856917
H       0.355300   -2.442129   -1.290265
H      -0.814821   -3.769308   -1.305839
H      -1.174363   -2.267928   -2.173164
H      -1.132906   -2.291368    2.174996
H      -0.790395   -3.783351    1.284855
H       0.379568   -2.456147    1.261196
