15

O      -0.149841    0.053116   -0.479393
C      -0.059973    1.217846   -0.157215
N       1.102318    1.850040    0.171348
C       2.371681    1.188767    0.173896
C       3.533173    1.845142   -0.590232
N       3.727695    3.142697    0.065060
C       4.392959    1.915112    0.639675
C       3.292094    1.268759    1.453259
O       3.189750    0.861263    2.568948
H      -0.929313    1.900212   -0.095520
H       1.089265    2.831312    0.403043
H       2.207747    0.141279   -0.092804
H       3.842678    1.657725   -1.609796
H       4.456953    3.651601   -0.434136
H       5.467411    1.871119    0.754498
