17

C      -0.130348    1.526621   -0.006992
C       0.016046    0.040613   -0.036605
C       0.137945   -0.830456   -1.097209
C       0.141634   -1.352804   -2.532382
O       1.150231   -0.934593   -3.409417
C       0.286487   -2.789774   -1.866507
N       0.253270   -2.086868   -0.564496
C       0.186719   -1.984024    0.784152
N       0.060547   -0.709581    1.123442
H       0.708585    1.997178    0.517271
H      -0.173099    1.936427   -1.019553
H      -1.043491    1.819909    0.521551
H      -0.799066   -1.234639   -3.076212
H       1.953648   -0.799488   -2.894131
H      -0.546043   -3.481361   -2.017361
H       1.237122   -3.285677   -2.077960
H       0.242195   -2.817213    1.467104
