19

O      -0.022187    1.424708   -0.000826
C      -0.013463    0.029365   -0.061845
C       0.312346   -0.718716   -1.356616
C      -0.586510   -1.870836   -0.782008
C       0.316718   -2.735626    0.059566
C       0.916422   -2.097568    1.066604
C       0.415929   -0.696866    1.303417
C      -1.120501   -0.834585    1.612325
C      -1.336240   -0.760761    0.099777
H       0.886661    1.730238    0.096757
H      -0.176700   -0.203231   -2.189006
H       1.344981   -0.969288   -1.615310
H      -1.204756   -2.421451   -1.489769
H       0.501476   -3.771820   -0.202177
H       1.632502   -2.556519    1.739880
H       1.024664   -0.100762    1.985468
H      -1.433546   -1.720682    2.169712
H      -1.515648    0.069604    2.082997
H      -2.280394   -0.422005   -0.328650
