22

C       2.208102    1.968804    0.397748
C       1.010788    1.540132   -0.456898
C       1.278387    0.391810   -1.399519
C       2.243611   -0.736337   -1.136876
C       2.405071    0.113781   -2.370039
N       1.470272   -0.139601   -3.534433
C       0.561358   -1.264145   -3.216861
C       0.317747    0.052231   -2.583893
C      -0.850926    0.925392   -2.944591
H       2.518971    1.178596    1.087890
H       3.069736    2.231061   -0.225772
H       1.953046    2.847502    0.997295
H       0.175487    1.271475    0.205508
H       0.666408    2.405860   -1.035638
H       2.988692   -0.506699   -0.381585
H       1.965459   -1.784060   -1.144239
H       3.315476    0.659076   -2.587724
H      -0.073245   -1.515450   -4.062753
H       0.915760   -2.130203   -2.671800
H      -1.681218    0.784754   -2.242434
H      -0.579718    1.985851   -2.939846
H      -1.209033    0.678808   -3.947999
