21

C       0.043132    1.489878    0.520050
C       0.040481    0.072639   -0.023661
C       1.073353   -0.281137   -1.070414
C       1.203756   -0.822164    0.334551
C      -1.342625   -0.537710   -0.117304
C      -2.370296   -0.000988   -1.172054
C      -2.770312   -1.459476   -1.544205
C      -1.555265   -1.935868   -0.735309
O      -0.951093   -2.969640   -0.679321
H       1.060234    1.891894    0.563678
H      -0.553459    2.162480   -0.107433
H      -0.373127    1.525082    1.534191
H       0.810150   -0.986729   -1.850910
H       1.755536    0.499514   -1.390293
H       1.977040   -0.410016    0.974788
H       1.006351   -1.878208    0.473593
H      -1.806439   -0.543907    0.880458
H      -3.168186    0.635825   -0.788979
H      -1.869018    0.511400   -1.996456
H      -3.711050   -1.789128   -1.091134
H      -2.779108   -1.740931   -2.600151
