18

C      -0.095942    1.588826   -0.039905
C       0.034913    0.087810    0.105966
N       1.198938   -0.713710   -0.302004
C       2.432452    0.068192    0.065540
C       2.095608    0.032784    1.565987
O       2.091788    1.283453    2.212246
C       0.757923   -0.636658    1.191124
C       0.193297   -1.722477    1.919701
C      -0.270200   -2.613527    2.583919
H       0.703529    2.139870    0.452177
H      -0.125014    1.861288   -1.101032
H      -1.042319    1.908487    0.408192
H      -0.867355   -0.444447   -0.191332
H       3.323173   -0.500915   -0.202786
H       2.490441    1.063029   -0.382161
H       2.726640   -0.687122    2.100935
H       1.821744    1.153123    3.127601
H      -0.683674   -3.407178    3.155444
