19

C       0.401266    1.377760    0.434989
C       0.161718   -0.086526    0.264071
O      -0.068974   -0.557908   -1.074162
C      -1.076035   -1.486964   -0.593155
C      -0.814436   -1.091948    0.855151
C       0.674300   -1.187929    1.151482
C       1.547977   -2.335811    0.756187
C       2.266399   -2.422641   -0.524214
O       2.952589   -2.062081    0.673974
H       1.339575    1.668738   -0.050297
H      -0.409392    1.961750   -0.011352
H       0.478098    1.632922    1.495533
H      -2.067895   -1.192449   -0.952858
H      -0.866284   -2.520214   -0.891978
H      -1.564444   -0.984524    1.627618
H       0.895313   -0.822704    2.154018
H       1.321995   -3.273071    1.269428
H       2.517428   -3.404132   -0.926065
H       2.138211   -1.630840   -1.255340
