18

C      -0.031446    1.484842   -0.006439
C       0.013858   -0.023521    0.052822
N       0.067014   -0.696478    1.150733
O       0.076349    0.159102    2.255697
C      -0.001969   -0.768387   -1.159795
C      -0.018571   -1.331682   -2.227285
C      -0.036486   -2.056050   -3.489020
C       0.015754   -3.576241   -3.296650
O      -0.007407   -4.152391   -4.590973
H       0.850742    1.906719    0.485188
H      -0.073497    1.832708   -1.038230
H      -0.904266    1.856148    0.539682
H       0.116829   -0.461299    2.991323
H      -0.940802   -1.808657   -4.059074
H       0.813385   -1.755408   -4.114548
H       0.929550   -3.843159   -2.745694
H      -0.843778   -3.897040   -2.689945
H       0.023065   -5.108653   -4.496474
