15

C       0.004552    1.450885   -0.019362
N       0.030360    0.005619    0.066937
C       0.468383   -0.633187   -0.932736
N       0.534610   -2.019236   -0.950473
C       0.088373   -2.775766    0.214175
C       1.018970   -2.674870   -2.063170
O       1.116080   -3.873425   -2.176449
H       0.604336    1.877915    0.792491
H       0.381569    1.847812   -0.975762
H      -1.021435    1.809056    0.122956
H       0.829587   -0.167693   -1.859686
H      -0.963652   -2.561926    0.417135
H       0.229865   -3.831952   -0.008603
H       0.669590   -2.484878    1.092284
H       1.315961   -1.967012   -2.859218
