17

C       0.027494    1.520634   -0.010018
C      -0.055617    0.032081    0.011389
C      -1.101916   -0.798408   -0.079699
C      -0.626687   -2.187878   -0.002850
C      -1.344157   -3.311717    0.703997
C      -1.189615   -3.341827   -0.795904
O       0.775588   -2.127281    0.140420
C       1.163960   -0.805206    0.153863
O       2.310720   -0.470451    0.265314
H       0.666672    1.859043   -0.832605
H      -0.958563    1.977591   -0.121005
H       0.486655    1.894134    0.911601
H      -2.146700   -0.537852   -0.192538
H      -0.718691   -3.976429    1.288124
H      -2.319509   -3.103036    1.129159
H      -2.056970   -3.154190   -1.418887
H      -0.460940   -4.026646   -1.213412
