19

C       0.018158    1.424384   -0.145149
N      -0.042515   -0.003985    0.129745
C       0.762286   -0.390495    1.288404
C      -1.330083   -0.556633    0.101886
N      -2.437258    0.184797    0.091805
N      -3.442229   -0.708325    0.006910
C      -3.007215   -1.998886   -0.039488
C      -1.631553   -1.946693    0.014123
N      -0.686183   -2.991611    0.025785
H       1.065425    1.712996   -0.281804
H      -0.537000    1.646727   -1.058425
H      -0.409572    2.035533    0.665802
H       0.438586    0.118508    2.212347
H       0.693722   -1.468435    1.448696
H       1.809827   -0.129603    1.104210
H      -4.387716   -0.375485   -0.043412
H      -3.688914   -2.831038   -0.117474
H      -1.075100   -3.864084   -0.310096
H       0.115378   -2.752742   -0.549247
