19

O      -0.082094    1.377386    0.058485
C      -0.000613   -0.012167    0.052040
C       0.991322   -0.724257    0.958129
C       0.523024   -2.202036    0.853002
C      -1.030917   -2.045453    0.898449
C      -1.251434   -0.830990    0.017086
C      -0.337992   -0.785497   -1.228593
C       0.452080   -1.994579   -1.548036
C       0.893208   -2.722768   -0.517155
H       0.708125    1.723678   -0.370733
H       2.035638   -0.597803    0.651847
H       0.877988   -0.344093    1.979408
H       0.909900   -2.827048    1.658954
H      -1.543603   -2.946633    0.548764
H      -1.365699   -1.831652    1.919982
H      -2.224039   -0.361050   -0.060078
H      -0.705699   -0.170695   -2.041986
H       0.639399   -2.256844   -2.584281
H       1.466135   -3.635740   -0.633713
