17

C       0.160204    1.270132    0.270380
O      -0.198725   -0.036653   -0.152347
C       0.579339   -0.526901   -1.201641
C       1.931072   -1.145477   -0.844223
C       0.767612   -2.028635   -1.186999
C       0.448666    0.142267   -2.462726
C       0.338580    0.714808   -3.523874
C       0.188877    1.404119   -4.774222
O       0.745580    1.091902   -5.803619
H       1.201312    1.308043    0.619531
H       0.031392    2.003246   -0.536291
H      -0.507024    1.523837    1.096199
H       2.742402   -1.046069   -1.554967
H       2.209300   -1.063287    0.200259
H       0.259119   -2.534351   -0.374703
H       0.763052   -2.544808   -2.138890
H      -0.497770    2.274300   -4.727991
