17

C      -0.052172    1.576794   -0.047864
C      -0.006910    0.047264   -0.011482
C       0.728671   -0.494304    1.218494
C       0.773554   -2.025074    1.253690
C       1.498210   -2.567063    2.466525
F       0.912744   -2.179174    3.613087
F       1.518959   -3.910355    2.465020
F       2.775307   -2.149175    2.513709
H       0.957347    2.001826   -0.065984
H      -0.582195    1.938481   -0.934118
H      -0.563500    1.978217    0.833908
H      -1.029520   -0.352212   -0.028052
H       0.480393   -0.328743   -0.920738
H       1.753734   -0.105820    1.237558
H       0.242337   -0.129610    2.130923
H      -0.236772   -2.447206    1.266488
H       1.282201   -2.423325    0.369507
