17

C      -0.038832    1.490371    0.043226
C       0.057139   -0.004086    0.001260
C       0.900324   -0.902724   -0.891570
N       0.028495   -2.080593   -0.498580
C       0.406559   -2.256961    0.953343
C      -0.232450   -0.904022    1.251949
C      -0.653564   -0.354115    2.493544
N      -0.987891    0.084743    3.512134
C      -1.015623   -1.043842   -0.042361
H       0.891915    1.932623    0.413925
H      -0.229875    1.891495   -0.957566
H      -0.847331    1.821044    0.701593
H       0.748650   -0.678318   -1.950980
H       1.968579   -1.033349   -0.688197
H      -0.160835   -3.083357    1.386447
H       1.476330   -2.396824    1.137754
H      -2.076269   -1.057740   -0.250237
