17

C      -0.001792   -1.135601    0.443283
C       0.014651    0.021392    0.119175
C       0.062594    1.433880   -0.260207
C       1.441366    2.011493   -0.158237
C       2.217688    2.653082   -1.034056
C       3.466122    2.942684   -0.178948
C       3.712121    1.559187    0.496223
C       2.347308    2.009471    1.095665
O       2.864106    3.381363    1.086751
H      -0.026704   -2.159399    0.723795
H      -0.316716    1.558359   -1.281500
H      -0.622587    1.996734    0.391190
H       2.051606    2.912918   -2.069299
H       4.254825    3.590597   -0.558390
H       3.742635    0.664470   -0.128425
H       4.521380    1.584373    1.229586
H       1.952913    1.670224    2.052580
