16

C      -0.026291    1.453977    0.008463
N      -0.051251    0.008187   -0.007319
C       0.033647   -0.780273   -1.126792
C       0.089156   -2.094759   -0.727013
C       0.040955   -2.116320    0.698722
C       0.058418   -3.324463    1.586605
C      -0.040361   -0.801990    1.103796
H       0.991284    1.846556    0.124770
H      -0.441330    1.836830   -0.926911
H      -0.639054    1.827751    0.833129
H       0.046350   -0.335169   -2.109619
H       0.140259   -2.952816   -1.380987
H       0.964759   -3.924025    1.440140
H       0.020257   -3.039437    2.642374
H      -0.794768   -3.985858    1.393636
H      -0.093444   -0.375698    2.094102
