21

C      -0.319661    1.395883    0.125552
C       1.114449    0.944845   -0.032771
C       0.006940   -0.065333    0.040591
C      -0.171257   -1.131276    1.129507
C      -0.496336   -2.179141    0.022642
C      -1.957710   -2.618770   -0.066381
O      -2.659670   -1.501951   -0.599800
C      -1.818818   -0.948982   -1.606795
C      -0.386236   -1.052939   -1.069770
H      -0.632019    1.791873    1.086737
H      -0.801607    1.868604   -0.724807
H       1.597300    1.108068   -0.991803
H       1.779237    1.036519    0.820911
H       0.725672   -1.348107    1.716689
H      -1.003826   -0.946288    1.815928
H       0.206237   -3.009972   -0.050624
H      -2.056442   -3.492786   -0.732596
H      -2.409204   -2.865527    0.899230
H      -1.913503   -1.521256   -2.545120
H      -2.153665    0.075695   -1.791279
H       0.351004   -1.186048   -1.865044
