20

O       0.155945    1.357492    0.147913
C       0.062320   -0.032840   -0.137858
C      -1.356177   -0.535621   -0.099937
C      -1.982048   -0.995965    1.200740
C      -1.716572   -1.997764    0.103754
C      -2.830210   -2.379460   -0.879791
C      -3.191425   -1.097211   -1.625955
N      -3.743741   -0.028400   -0.766956
C      -2.314146    0.003919   -1.147836
H      -0.311313    1.506242    0.977214
H       0.489136   -0.149140   -1.141373
H       0.682898   -0.628723    0.550786
H      -1.335227   -1.051062    2.071990
H      -3.003375   -0.694818    1.396898
H      -0.936145   -2.730620    0.283557
H      -2.448829   -3.116398   -1.595451
H      -3.700688   -2.823413   -0.385132
H      -3.536042   -1.161555   -2.653729
H      -4.260298    0.632226   -1.342593
H      -1.962616    0.802062   -1.792231
