15

C       0.068494    1.508868    0.007250
C       0.021489   -0.007424    0.001102
O       1.038567   -0.685983   -0.008634
C      -1.289345   -0.647270    0.009735
C      -2.598502   -0.180055    0.022260
C      -3.451505   -1.304014    0.025281
C      -2.643982   -2.431067    0.014700
N      -1.351488   -2.021740    0.005480
H       1.109321    1.833635   -0.000429
H      -0.449411    1.914122   -0.868382
H      -0.433887    1.906448    0.895378
H      -2.897331    0.856922    0.028389
H      -4.530344   -1.301619    0.034143
H      -2.901176   -3.478574    0.013115
H      -0.515100   -2.584003   -0.003425
