15

N      -0.618574    0.627477   -1.193331
C      -0.233051   -0.362194   -0.309819
C      -0.921199   -1.233138    0.524917
N      -2.282842   -1.470757    0.752216
C      -3.355328   -1.117020    0.001054
N      -3.287043   -0.426641   -1.078091
N      -0.028303   -1.939661    1.268174
N       1.181801   -1.585099    0.958571
N       1.062527   -0.631304    0.002591
H      -0.049930    0.662186   -2.031086
H      -1.612422    0.499432   -1.420268
H      -2.445096   -2.072245    1.544657
H      -4.289258   -1.488404    0.434935
H      -4.213816   -0.266635   -1.459648
H       1.889673   -0.185449   -0.359640
