17

O      -0.035299   -0.064336   -0.034298
C       0.025220    1.127706    0.111214
C       1.311492    1.936205    0.072882
C       1.328898    2.812481   -1.209704
C       1.421234    1.970297   -2.500072
C       1.439572    2.805424   -3.693593
C       1.451811    3.521185   -4.658785
C       1.398865    2.856758    1.280968
O       2.351929    2.926755    2.009321
H      -0.895949    1.737921    0.262406
H       2.165118    1.253878    0.086885
H       0.430547    3.439842   -1.246793
H       2.185142    3.492170   -1.160988
H       2.327362    1.352699   -2.464844
H       0.580857    1.267473   -2.551882
H       1.464644    4.139253   -5.522176
H       0.504148    3.502929    1.436059
