19

C      -0.229617    1.454912    0.173366
C       0.168600    0.022707    0.022939
C       0.607744   -0.720255   -1.252813
C       1.414980   -1.714461   -0.347041
C       0.926982   -0.919512    0.874033
C       1.594134   -0.764850    2.215407
C       1.675167   -2.023708    2.952793
C       1.745178   -3.069321    3.540124
O      -0.506743   -0.958154    0.835376
H       0.512022    2.115936   -0.286823
H      -1.192725    1.639488   -0.316380
H      -0.333389    1.721920    1.228505
H      -0.210635   -1.143331   -1.840249
H       1.253069   -0.123013   -1.902173
H       1.107209   -2.761806   -0.363233
H       2.494229   -1.647671   -0.506324
H       2.605703   -0.363432    2.068684
H       1.038310   -0.023481    2.801089
H       1.800235   -3.989733    4.066478
