23

C      -0.094751    1.475594   -0.174468
C       1.433541    1.584386    0.104070
C       1.532408    0.038461    0.175197
C       2.550595   -0.787660   -0.652789
C       3.035977   -1.495206    0.646775
C       1.935377   -0.750062    1.457276
C       0.665372   -1.541215    1.836685
C      -0.502635   -0.655419    1.352176
C      -0.013436   -0.067927    0.011148
H      -0.749873    1.996500    0.529456
H      -0.372738    1.783272   -1.185514
H       2.013357    2.038539   -0.704929
H       1.698628    2.094605    1.035504
H       2.093565   -1.448716   -1.395954
H       3.314142   -0.189605   -1.158995
H       2.964053   -2.586438    0.655596
H       4.054461   -1.221564    0.933080
H       2.302437   -0.150705    2.296329
H       0.649022   -2.496133    1.295815
H       0.605029   -1.779642    2.903130
H      -1.446060   -1.203648    1.267389
H      -0.669724    0.155744    2.072433
H      -0.368302   -0.657098   -0.840272
