17

C       0.029935    1.582007   -0.167715
C       0.035181    0.076894    0.000673
C       1.331115   -0.704141    0.024213
O       2.556985   -0.018951    0.087281
C       0.500715   -0.620615    1.273989
C       1.056929    0.131648    2.469872
O       2.206446   -0.503219    3.008487
H       0.971798    2.029643    0.156992
H      -0.114591    1.846078   -1.221464
H      -0.780877    2.048834    0.401229
H      -0.784536   -0.423678   -0.509094
H       1.379154   -1.653232   -0.507921
H       2.770413    0.319289   -0.788402
H      -0.029273   -1.531380    1.537629
H       1.270917    1.175646    2.209523
H       0.313504    0.147281    3.273768
H       2.870013   -0.479421    2.309048
