27

C      -0.050462    1.569692   -0.038182
C       0.036316    0.039124    0.036766
C       0.902386   -0.390704    1.229792
C      -1.372904   -0.580154    0.077036
C      -1.417684   -2.108078   -0.038515
C      -2.847596   -2.656697   -0.095299
C      -2.916299   -4.176394   -0.241459
C      -4.352858   -4.699855   -0.218553
O      -2.273822   -4.498927   -1.474971
H       0.944450    2.022365   -0.107105
H      -0.628919    1.895385   -0.909252
H      -0.538145    1.977842    0.855559
H       0.527612   -0.315366   -0.881337
H       1.050133   -1.473922    1.263019
H       1.892313    0.075586    1.183363
H       0.438468   -0.087257    2.176670
H      -1.873578   -0.265600    1.005159
H      -1.964518   -0.150125   -0.742896
H      -0.882331   -2.428882   -0.939114
H      -0.895528   -2.566135    0.811484
H      -3.394090   -2.369521    0.812224
H      -3.383893   -2.208630   -0.942567
H      -2.359606   -4.631719    0.596433
H      -4.934905   -4.253323   -1.031229
H      -4.374748   -5.789013   -0.343333
H      -4.843846   -4.466018    0.731886
H      -2.295377   -5.455020   -1.580185
