18

C       0.481093    1.441299    0.043460
O       1.069683    0.213301   -0.393178
C      -0.286404    0.184544    0.057741
C      -0.558745   -0.572487    1.304195
C       0.487728   -0.932966    2.321494
C      -0.258770   -2.037965    1.616614
C      -1.714680   -2.204660    2.139938
N      -1.939050   -1.248512    3.256285
C      -2.010946   -0.791793    1.844536
H       0.868714    1.833036    0.982204
H       0.306866    2.177318   -0.740287
H      -1.011793    0.033684   -0.745448
H       1.500479   -0.793119    1.957772
H       0.325151   -0.741795    3.374210
H       0.231676   -2.762494    0.979899
H      -2.328287   -3.088628    2.027072
H      -2.899711   -1.382166    3.571486
H      -2.902518   -0.322954    1.447710
