18

N       0.060293   -1.169511   -0.063063
C       0.023026   -0.015678   -0.030251
C      -0.025796    1.446566    0.042892
N       1.317046    2.019013    0.005176
C       1.341218    3.448270    0.028022
C       0.766634    4.512123    1.024929
N       1.457856    5.375726   -0.036365
C       2.594628    4.339934    0.031172
C       0.827893    4.417844   -1.061249
H      -0.587516    1.816438   -0.823099
H      -0.610147    1.722609    0.937798
H       1.887032    1.635017    0.752241
H      -0.315326    4.663496    1.067116
H       1.222467    4.592222    2.015647
H       3.183487    4.400906    0.950707
H       3.231935    4.329395   -0.856428
H       1.336984    4.414346   -2.028341
H      -0.250586    4.557726   -1.174717
