17

N      -0.405508   -0.856395   -0.475265
C      -0.171880    0.268512   -0.355090
C       0.122226    1.702472   -0.233353
N       1.493195    1.927650    0.222228
C       2.517777    1.558369   -0.776187
C       2.967956    2.866195   -1.400754
O       1.869521    3.698102   -1.803755
C       2.497449    3.954126   -0.539989
C       1.750366    3.324851    0.622459
H      -0.108514    2.186323   -1.195883
H      -0.565055    2.116847    0.511840
H       3.375214    1.075587   -0.288398
H       2.110361    0.847998   -1.500651
H       3.865025    2.926139   -2.010882
H       3.008196    4.907893   -0.438661
H       0.814347    3.839063    0.858571
H       2.384253    3.358113    1.519584
