20

C      -0.296073    1.454955   -0.106273
N       0.092485    0.063964   -0.008119
C       1.222499   -0.448170   -0.830655
C       1.699059   -1.285687    0.388653
O       2.846562   -0.763472    1.083694
C       1.994009    0.052432    1.919584
C       1.466540   -0.648703    3.206103
C       0.069975   -0.878376    2.530415
C       0.690065   -0.448737    1.203496
H       0.541507    2.156897    0.058353
H      -0.714261    1.653768   -1.098512
H      -1.074832    1.672533    0.632348
H       0.903071   -0.988355   -1.728487
H       1.968602    0.310879   -1.104652
H       1.703063   -2.373712    0.298414
H       2.347300    1.082299    2.007016
H       2.019231   -1.563873    3.426507
H       1.447625   -0.019606    4.098334
H      -0.365131   -1.880420    2.576162
H      -0.676068   -0.162384    2.890078
