16

C       0.350047    1.375682    0.103148
N       0.105913   -0.056819    0.110900
N      -0.095415   -0.691163   -1.064121
N      -0.294890   -1.952508   -0.811351
C      -0.232573   -2.142081    0.530811
C       0.028060   -0.935848    1.146918
C       0.188128   -0.644037    2.582162
C       1.198561    0.265020    3.151988
O      -0.172542    0.656753    3.070106
H       1.422626    1.588102    0.156403
H      -0.039948    1.764756   -0.837097
H      -0.156472    1.834979    0.951059
H      -0.379072   -3.112313    0.978655
H      -0.151682   -1.462425    3.215524
H       1.572502    0.079430    4.157435
H       1.880585    0.797380    2.492106
