15

N       0.063177    1.296755   -0.313135
C       0.063313    0.071228   -0.020404
O       1.209764   -0.640668    0.171519
C       1.260198   -1.716047    1.120682
C       0.003760   -2.519994    1.099426
C      -1.092324   -1.991244    0.569168
N      -1.132783   -0.689764    0.040870
C      -2.369226   -0.232783   -0.452586
O      -2.603594    0.813759   -0.980766
H       1.025088    1.635360   -0.312057
H       2.129489   -2.312952    0.828644
H       1.466772   -1.302493    2.120055
H      -0.002202   -3.520077    1.512209
H      -2.035671   -2.520376    0.512742
H      -3.137226   -1.013774   -0.285896
