18

C       0.134484    1.622258    0.127781
C       0.020451    0.096566    0.048004
C       0.589602   -0.496293   -1.246505
C       0.729174   -2.024611   -1.284434
O       0.727797   -2.382459   -2.667041
C      -0.199896   -1.541426   -3.321585
C      -0.262417   -0.251445   -2.497479
O      -0.892851    0.734239   -2.780510
H       1.182752    1.939215    0.086820
H      -0.394601    2.092872   -0.703201
H      -0.288780    1.994313    1.065667
H       0.546531   -0.358229    0.897139
H      -1.030813   -0.202828    0.143885
H       1.575102   -0.053846   -1.455442
H       1.659198   -2.395574   -0.848737
H      -0.115491   -2.500121   -0.757539
H       0.128327   -1.354799   -4.348405
H      -1.210259   -1.983372   -3.359877
