16

C       0.055528    1.430894    0.012399
C       0.073852   -0.017851   -0.100912
C       0.082236   -1.218798   -0.201784
C       0.042670   -2.662355   -0.357639
O      -0.791830   -3.236931   -1.035253
N       1.026528   -3.312652    0.336901
C       1.200735   -4.754656    0.242925
C       2.580110   -5.127971   -0.054838
C       3.723140   -5.426694   -0.272558
H       0.983278    1.866176   -0.374359
H      -0.779331    1.859797   -0.551337
H      -0.047617    1.741494    1.057698
H       1.714668   -2.768798    0.831655
H       0.879496   -5.244598    1.172554
H       0.520264   -5.091637   -0.545574
H       4.727932   -5.699796   -0.481512
