14

N       0.006806    1.344263    0.379191
C      -0.013994   -0.010679    0.037480
C      -1.090954   -0.805439   -0.222278
O      -0.677808   -2.107687   -0.429578
C       0.660325   -2.101795   -0.294748
O       1.303300   -3.273065   -0.526172
C       0.947743   -4.355394    0.242442
O       1.410980   -5.431731    0.048506
C       1.142887   -0.868559   -0.007874
H       0.811157    1.833397    0.009383
H      -0.838061    1.835920    0.119923
H      -2.151588   -0.635863   -0.279590
H       0.213841   -4.090954    1.020721
H       2.173825   -0.602608    0.158346
