19

C       0.880268    1.481676   -0.192856
C       0.187906    0.160765    0.153720
C       0.119151   -0.836590   -1.045356
N       1.200362   -1.816767   -0.835047
C       1.609179   -1.624467    0.363424
N       0.962234   -0.653437    1.099652
C       2.719338   -2.396774    0.977478
C       3.936756   -1.720082    1.460315
O       2.945051   -2.182225    2.374308
H       1.861379    1.296100   -0.643037
H       0.279066    2.051831   -0.909035
H       1.020762    2.105485    0.696810
H      -0.807202    0.364362    0.562055
H      -0.844181   -1.362096   -1.071766
H       0.237897   -0.328797   -2.008532
H       1.407177   -0.253531    1.911356
H       2.801368   -3.426030    0.637008
H       4.878581   -2.265678    1.469798
H       4.021755   -0.638634    1.365960
