18

C       0.018197    1.377074    0.324101
C      -0.014123   -0.073790    0.006859
C      -0.989670   -1.025510    0.046968
N      -2.337811   -0.928516    0.483301
C      -0.383422   -2.272059   -0.351633
C      -1.102718   -3.586745   -0.399247
O      -1.752753   -3.886859    0.826860
C       0.915020   -1.973121   -0.602688
O       1.162412   -0.652311   -0.389369
H       0.477579    1.949416   -0.489211
H      -0.998898    1.754570    0.464775
H       0.585396    1.592321    1.237975
H      -2.530658   -0.041690    0.933760
H      -2.995128   -1.036953   -0.283846
H      -1.826079   -3.589973   -1.234093
H      -0.396774   -4.400567   -0.594049
H      -2.219917   -3.081756    1.091870
H       1.757727   -2.563117   -0.924511
