15

C       0.062367    1.530063    0.003215
C      -0.090040    0.014227   -0.047830
N       0.642241   -0.545594   -1.172527
C       0.813076   -1.893950   -1.310871
N       0.466630   -2.740043   -0.416003
C       1.489539   -2.294339   -2.604592
O       1.737037   -3.437191   -2.883408
H       1.113122    1.817675    0.106000
H      -0.334645    2.003397   -0.902740
H      -0.489474    1.937149    0.854493
H       0.301733   -0.452815    0.860723
H      -1.151819   -0.268260   -0.100755
H       0.708547    0.019242   -2.005002
H       0.748604   -3.670033   -0.731996
H       1.750502   -1.459713   -3.295911
