15

C      -0.215492    1.318407   -0.277355
C       1.208327    1.072811    0.168255
C       0.227056   -0.065554    0.111105
N      -0.256202   -0.682809    1.314981
C      -0.544776   -0.162934    2.526584
N      -0.966347   -1.108007    3.350096
C      -0.914804   -2.218673    2.569473
N      -0.492735   -2.018870    1.330162
H      -0.875906    1.842251    0.404769
H      -0.412292    1.509275   -1.326092
H       2.001038    1.092951   -0.570808
H       1.500879    1.432365    1.148553
H       0.337901   -0.817780   -0.657683
H      -0.437525    0.884186    2.764519
H      -1.194289   -3.201589    2.918008
