18

F       0.275307    0.081002    0.027499
C      -0.037210    1.389109    0.037403
F       1.104618    2.069425   -0.167111
F      -0.831229    1.616284   -1.021638
C      -0.710585    1.795972    1.329650
C       0.162170    1.541556    2.565622
C      -0.525224    1.953836    3.849076
C      -1.484191    1.012651    4.536839
C      -0.141828    1.314468    5.157750
H      -0.963445    2.857589    1.241243
H      -1.650938    1.240547    1.397991
H       0.415746    0.476108    2.610583
H       1.108855    2.083074    2.453991
H      -0.784736    3.009050    3.897584
H      -2.372861    1.423894    5.002409
H      -1.627848    0.028896    4.100909
H       0.611865    0.533955    5.137043
H      -0.112035    1.934798    6.046515
