16

O       0.002638    1.394782    0.082075
C       0.094440   -0.010111    0.016462
C      -1.332432   -0.579661   -0.035165
C      -1.361724   -0.379930   -1.575739
N      -1.942507   -1.727683   -1.849318
C      -1.272651   -2.082902   -0.535788
C       0.165629   -2.066345   -1.074384
O       1.000087   -2.922825   -1.127692
C       0.205382   -0.586394   -1.444216
H       0.874296    1.762220   -0.097095
H       0.805467   -0.405894    0.754040
H      -2.117511   -0.272624    0.654876
H      -1.737442    0.491011   -2.105898
H      -2.947671   -1.668168   -1.684198
H      -1.622410   -2.948631    0.021610
H       0.945089   -0.235955   -2.159451
