15

C       0.158906    1.390686   -0.086792
N      -0.083279   -0.041856   -0.086111
C      -1.352079   -0.524304    0.133365
O      -2.302608    0.157699    0.425769
N      -1.391942   -1.937754    0.026836
C      -2.533957   -2.731237   -0.021371
O      -3.667489   -2.333236   -0.112631
C      -2.198297   -4.152048    0.031686
C      -1.955892   -5.329209    0.070013
H       1.168488    1.596304    0.278782
H       0.043074    1.834630   -1.083441
H      -0.569311    1.853630    0.579170
H       0.561898   -0.618187   -0.602475
H      -0.517647   -2.438799    0.078023
H      -1.761459   -6.373732    0.106352
