21

C       0.666775    1.594883    0.046301
C       0.021266    0.203675   -0.000211
C       0.426061   -0.562000   -1.283036
C      -0.358605   -1.867372   -1.558416
C       0.169551   -3.124176   -0.822172
C       0.727580   -2.744375    0.528578
O       1.802260   -3.052341    0.961210
O      -0.133091   -1.910059    1.202617
C       0.347257   -0.558939    1.290548
H       1.760563    1.522784    0.042751
H       0.369886    2.195195   -0.819090
H       0.373252    2.142878    0.948068
H      -1.069954    0.328989   -0.033133
H       0.263867    0.117210   -2.127974
H       1.506640   -0.765593   -1.269913
H      -1.409060   -1.705612   -1.296501
H      -0.336413   -2.077496   -2.632770
H      -0.642161   -3.848567   -0.689862
H       0.966979   -3.620758   -1.380182
H       1.425952   -0.571118    1.490156
H      -0.154394   -0.106246    2.149630
