21

C      -0.387138    1.360217    0.062090
C       0.041898   -0.095497   -0.018609
O       0.355730   -0.700470    0.980472
C       0.094787   -0.767030   -1.411883
C       1.406961   -0.347483   -2.094525
C      -0.060117   -2.296460   -1.264880
C      -1.590059   -2.516544   -1.337014
O      -2.178002   -1.252672   -1.671544
C      -1.162883   -0.447555   -2.238687
H      -0.058671    1.776986    1.014937
H      -0.001696    1.960950   -0.766247
H      -1.481398    1.409499    0.020133
H       2.271749   -0.678117   -1.511753
H       1.475511   -0.798051   -3.089897
H       1.479123    0.738513   -2.214493
H       0.448019   -2.804120   -2.089650
H       0.371252   -2.641284   -0.325143
H      -1.852886   -3.265380   -2.096730
H      -2.019690   -2.833736   -0.382396
H      -1.493743    0.592793   -2.197087
H      -0.983016   -0.703322   -3.297777
