18

C      -0.051737    1.485747   -0.325994
C      -0.000256    0.001377   -0.060459
N       1.306414   -0.652816   -0.205638
C       0.693389   -0.592166    1.113249
C       1.292332   -0.062613    2.418971
C       0.761262    1.208913    3.039531
O       0.746142   -1.263130    3.097166
C       0.235363   -1.769568    1.928511
O      -0.323660   -2.805654    1.747046
H       0.871826    1.971107   -0.001709
H      -0.169928    1.671446   -1.398440
H      -0.896426    1.949671    0.192898
H      -0.870610   -0.562502   -0.394720
H       1.211529   -1.594214   -0.582881
H       2.384334   -0.111076    2.440389
H      -0.329977    1.247434    2.980091
H       1.053983    1.264143    4.091893
H       1.172060    2.083151    2.525819
