16

C      -0.007303    1.513038    0.069508
N       0.048041    0.066770    0.065344
C       0.578896   -0.658639    1.060979
O       1.082420   -0.233485    2.092714
C       0.490878   -2.176892    0.767385
O      -0.005148   -2.606632   -0.249757
N       1.042883   -2.877498    1.806957
C       1.181980   -4.251177    1.975791
N       0.789311   -5.108408    1.130005
H       0.545995    1.930684   -0.778244
H      -1.042293    1.867492    0.020659
H       0.446285    1.860772    0.998713
H      -0.319818   -0.473880   -0.706322
H       1.386643   -2.262254    2.536866
H       1.672495   -4.471969    2.931698
H       0.997420   -6.046176    1.469850
