17

C      -0.010913    1.562002   -0.066448
C       1.469049    1.886054    0.059505
C       2.468576    0.866268   -0.480107
C       2.094527    0.880377    0.985857
C       1.192336   -0.366106    0.990264
O       1.935339   -1.309473    0.205483
C       1.928234   -0.508469   -0.968595
O       0.550413   -0.407598   -1.270987
C       0.019082    0.037553   -0.009784
H      -0.561855    1.999698    0.775146
H      -0.473162    1.899839   -0.997795
H       1.787680    2.923218    0.082305
H       3.435036    1.209301   -0.826995
H       2.779700    1.103260    1.793014
H       0.903381   -0.798051    1.945226
H       2.462258   -0.990557   -1.785163
H      -0.935613   -0.456265    0.172849
