14

C      -0.000294    1.462215   -0.013626
N      -0.012623    0.010535    0.028050
C       0.519125   -0.650788   -0.902161
O       1.135829    0.022439   -2.000725
C       1.699608   -0.680304   -2.986985
N       1.766744   -1.953330   -3.088144
C       1.187634   -2.648511   -2.055661
F       1.272161   -3.959680   -2.187009
C       0.581236   -2.090064   -0.992154
H       1.021120    1.865206   -0.030257
H      -0.515753    1.853302   -0.900934
H      -0.506351    1.846720    0.874408
H       2.125418   -0.032967   -3.748014
H       0.136712   -2.673195   -0.198952
