19

O       0.001617    0.032023    0.111630
C      -0.015420    1.221383   -0.009236
C      -1.095204    2.323081    0.049750
C      -0.025388    3.005176    0.967829
C       1.036654    2.350707    0.021062
C       0.986677    3.052823   -1.402513
C      -0.072483    4.193253   -1.387733
C      -1.101755    3.025760   -1.374410
C      -0.059772    2.289064   -2.276828
H      -2.088504    2.094248    0.434710
H      -0.038069    4.088154    1.068252
H      -0.006151    2.554717    1.963576
H       2.045547    2.147821    0.379078
H       1.985622    3.244066   -1.796378
H      -0.071688    4.947918   -0.601934
H      -0.092101    4.704248   -2.353429
H      -2.115554    3.190921   -1.741189
H      -0.078411    2.661117   -3.303786
H      -0.045774    1.197011   -2.288263
