17

O      -0.044748    1.386855    0.038587
C       0.021519    0.020968   -0.034534
C      -1.139903   -0.872244   -0.150718
C      -1.008652   -1.837149   -1.331105
C       0.442469   -1.611085   -1.842349
C       1.128034   -0.868887   -0.680544
C       1.072691   -1.693686    0.635190
O       1.870084   -2.416215    1.170748
C      -0.202860   -1.068995    1.073980
H       0.751132    1.714976    0.472776
H      -2.112962   -0.487572    0.135942
H      -1.175209   -2.871962   -1.016076
H      -1.748795   -1.609078   -2.103646
H       0.953649   -2.545551   -2.088796
H       0.446190   -0.983675   -2.739812
H       2.097431   -0.420536   -0.901209
H      -0.596221   -0.994328    2.080863
