18

O       0.143821    1.420928    0.076246
C       0.083473    0.015182    0.042983
C      -1.369504   -0.503005   -0.005405
C      -1.472998   -2.041533   -0.019509
O      -1.567354   -2.444156    1.344223
C      -2.347971   -1.475975    2.024699
C      -2.091349   -0.184047    1.284674
N      -2.346131    1.007357    1.652552
O      -2.964231    1.025994    2.915351
H      -0.479746    1.719693    0.753460
H       0.608342   -0.302184   -0.865071
H       0.599987   -0.444903    0.901709
H      -1.865673   -0.043204   -0.864524
H      -2.362577   -2.364157   -0.582226
H      -0.594976   -2.531843   -0.448671
H      -3.423626   -1.719991    2.000023
H      -2.038788   -1.431582    3.072410
H      -3.120668    1.965642    3.058769
