15

C      -0.209548    1.269597    0.082948
N       1.328205    1.274212    0.073745
C       2.080953    0.294454    0.835075
C       1.492920   -1.264739    0.635500
C       0.091936   -1.108076    0.327584
C      -0.050056   -0.103701   -0.595915
C       1.355912    0.305673   -1.085907
C       2.381072   -0.570182   -0.355875
H      -0.688881    1.298540    1.064087
H      -0.538019    2.111590   -0.532342
H       2.602996    0.512521    1.754852
H       1.917854   -1.986335    1.324206
H      -0.665332   -1.313060    1.078710
H       1.524201    0.715007   -2.080928
H       3.318291   -0.955893   -0.733805
