19

C       0.049808    1.529639    0.004756
C      -0.030338    0.029642   -0.016491
C      -0.016191   -0.678514   -1.150910
C      -0.063998   -2.160517   -1.155660
N       0.934648   -2.874128   -0.301956
C      -0.481063   -2.860520    0.089769
C      -0.854105   -2.008815    1.283214
C      -0.082536   -0.674413    1.323214
H       0.926735    1.870571    0.571090
H       0.115849    1.947716   -1.003561
H      -0.826481    1.966605    0.501586
H       0.038624   -0.173314   -2.111901
H      -0.311261   -2.628960   -2.104457
H       1.164057   -3.768335   -0.729322
H      -1.047534   -3.783440   -0.021354
H      -1.931663   -1.806975    1.224809
H      -0.685605   -2.559981    2.215606
H       0.943990   -0.865624    1.658756
H      -0.533704   -0.016588    2.075551
