14

C      -0.067695    1.440691    0.009153
O      -0.026055    0.001593    0.005144
C      -1.171204   -0.655920    0.011896
C      -1.207219   -2.034541    0.008469
C      -2.485326   -2.600111    0.016549
N      -3.632495   -1.948516    0.026854
C      -3.639830   -0.604296    0.030243
O      -4.526222    0.184917    0.039398
O      -2.261861    0.059064    0.021889
H       0.975619    1.752879    0.001857
H      -0.585728    1.813398   -0.876975
H      -0.571871    1.808812    0.905143
H      -0.299582   -2.617215    0.000152
H      -2.571900   -3.686118    0.014389
