23

C      -0.191446    1.482743   -0.106426
C       0.023703   -0.022759   -0.053224
C       1.298246   -0.512212   -0.854062
C       1.983788   -0.570902    0.488774
C       3.023525   -0.127971    1.186995
C       2.594934    0.097365    2.635972
C       1.037386    0.214644    2.535090
C       0.692661   -0.605227    1.268889
C       0.148170   -1.999130    1.598146
H       0.730272    2.026412    0.128263
H      -0.512654    1.792211   -1.106869
H      -0.960769    1.803080    0.604461
H      -0.898772   -0.543603   -0.330372
H       1.135715   -1.488624   -1.321091
H       1.715197    0.168503   -1.601456
H       4.008150    0.129779    0.813023
H       2.898523   -0.729102    3.294244
H       3.046099    1.002531    3.057255
H       0.527702   -0.143655    3.435212
H       0.767460    1.267422    2.405274
H      -0.864236   -1.929243    2.013613
H       0.098548   -2.637990    0.710055
H       0.779595   -2.505024    2.336585
