20

C      -0.026838    1.561028   -0.006083
C      -0.012518    0.021806    0.029753
C       0.773571   -0.498661    1.247068
C      -1.416404   -0.512097    0.048869
N      -2.310598   -0.280680    1.000642
C      -3.401293   -0.965343    0.571516
N      -3.250313   -1.604320   -0.575621
N      -1.963874   -1.304089   -0.903583
C      -1.391714   -1.826692   -2.129564
H       0.995229    1.952477   -0.013325
H      -0.543491    1.935571   -0.894984
H      -0.544956    1.951953    0.873671
H       0.478965   -0.341124   -0.880751
H       0.284552   -0.182739    2.172426
H       0.827219   -1.591577    1.250967
H       1.794945   -0.105427    1.238795
H      -4.333382   -0.996149    1.116317
H      -1.091780   -1.017206   -2.801239
H      -0.523647   -2.458663   -1.921340
H      -2.163404   -2.425090   -2.611652
