16

C       0.036129    1.356189   -0.149281
C       0.070729   -0.169780    0.018045
C       0.798606   -0.503035    1.313863
O       1.975909   -0.738910    1.389856
N      -1.288993   -0.692372    0.107603
C      -1.969548   -0.952122   -1.156565
C      -1.485851   -2.078927   -0.313088
H       1.051229    1.756619   -0.211932
H      -0.501744    1.620787   -1.064363
H      -0.480231    1.823853    0.694473
H       0.646983   -0.616054   -0.810289
H       0.139602   -0.483518    2.211161
H      -3.024861   -0.697097   -1.186564
H      -1.426522   -0.754477   -2.079545
H      -0.619470   -2.632109   -0.671725
H      -2.181337   -2.658432    0.286445
