19

C       0.003721    1.561887   -0.184209
C      -0.034478    0.066868   -0.001727
O       1.237966   -0.627671   -0.101350
C       0.565188   -0.613946    1.139457
C       1.131572   -0.199095    2.490745
C      -0.080247   -0.873920    3.234270
C       0.847869   -1.677925    4.165860
C       1.569261   -1.680407    2.804493
C       0.216824   -1.813776    2.007418
H       0.820346    2.003800    0.392430
H       0.149708    1.818902   -1.238682
H      -0.939882    2.012245    0.143332
H      -0.840766   -0.445736   -0.530509
H       1.654773    0.707409    2.794606
H      -1.036912   -0.396943    3.451044
H       1.329201   -1.125180    4.978865
H       0.470859   -2.640058    4.526900
H       2.519358   -2.134350    2.523457
H      -0.301328   -2.739804    1.758696
