16

C      -0.050920    1.415932    0.087157
N       0.045040   -0.025908   -0.009625
C       0.181294   -0.780085   -1.134132
C       0.191107   -2.097729   -0.736528
C       0.051849   -2.039606    0.664761
N      -0.037800   -0.777459    1.097013
C       0.007983   -3.198787    1.595442
N      -0.128836   -2.861950    2.906741
O       0.089528   -4.346999    1.193923
H       0.187102    1.851857   -0.884185
H      -1.061057    1.716964    0.379873
H       0.658130    1.783135    0.832264
H       0.260140   -0.320682   -2.106793
H       0.287801   -2.982521   -1.341739
H      -0.193913   -1.897013    3.182691
H      -0.168549   -3.595502    3.592818
