20

C      -0.089277    1.541994    0.010199
C       0.085122    0.022357   -0.037905
C       0.768511   -0.536034    1.217406
C       0.866534   -2.026880    1.221720
C       1.381245   -3.037073    2.287620
C       1.559864   -4.083985    1.179162
C       0.241685   -3.937451    1.891870
N      -0.285174   -2.939367    0.863786
C       1.043699   -3.049485    0.150553
H       0.876116    2.051902    0.105477
H      -0.573575    1.914087   -0.897905
H      -0.706949    1.842820    0.863686
H      -0.888560   -0.466211   -0.153076
H       0.675089   -0.251525   -0.921727
H       1.777716   -0.111462    1.315885
H       0.212834   -0.218077    2.111338
H       1.917468   -2.930677    3.220085
H       2.253461   -4.910633    1.125791
H      -0.371857   -4.632439    2.451384
H       1.124468   -2.968070   -0.927253
