17

C      -0.185421   -1.267088   -0.329728
C      -0.075761   -0.087966   -0.126000
C       0.037984    1.347507    0.092542
C      -0.595702    1.859240    1.403087
N       0.016744    1.364734    2.640434
C       0.396325    2.696746    2.130155
C       1.681901    2.717291    1.326193
N       2.337277    1.401822    1.189285
C       1.481549    1.892407    0.104063
H      -0.269586   -2.312856   -0.491444
H      -0.481834    1.866161   -0.725442
H      -1.657825    2.083720    1.392514
H      -0.647248    1.472021    3.403861
H       0.107853    3.586059    2.680071
H       2.282002    3.620810    1.320405
H       3.311562    1.535295    0.928191
H       1.931549    2.141019   -0.852127
