15

O       0.154605    1.339986   -0.105652
C       0.068490   -0.006046   -0.106917
C      -0.165830   -0.859164   -1.159140
C       0.097557   -1.408617   -2.544340
C       1.380696   -2.225318   -2.494811
C       0.124455   -2.788466   -1.882107
N      -0.168209   -2.129815   -0.594599
C       0.100016   -2.008916    0.729526
N       0.159603   -0.725310    1.060184
H       0.258385    1.600856    0.817904
H      -0.384289   -1.125218   -3.469116
H       1.682187   -2.693828   -3.428605
H       2.198819   -1.908935   -1.855677
H      -0.356442   -3.714374   -2.164810
H       0.149332   -2.834251    1.422748
