11

O      -0.063139   -0.066944    0.004213
C      -0.018017    1.148788    0.010762
C      -1.243132    1.984333    0.030845
N      -1.312069    3.267056    0.037862
O      -0.111124    3.969329    0.024619
C       1.065355    3.302223    0.004978
C       1.189664    1.957368   -0.003030
C       2.182524    4.198163   -0.006685
N       3.098500    4.903478   -0.016425
H      -2.207098    1.482324    0.041573
H       2.165514    1.490497   -0.019149
