21

C       0.215714    1.447106   -0.105922
C       0.088608   -0.052561    0.031617
C      -1.174917   -0.720442   -0.407230
C      -1.528888   -1.724733    0.397794
C      -0.558280   -1.893773    1.548448
C       0.518131   -0.842234    1.267495
C       1.339300   -0.922420   -0.000196
C       1.497652   -2.163148   -0.834454
O       1.868657   -1.754838   -2.148716
H       1.151645    1.804999    0.334626
H       0.213322    1.747514   -1.160178
H      -0.610991    1.966272    0.392411
H      -1.711813   -0.408076   -1.296649
H      -2.384907   -2.375092    0.254537
H      -1.045406   -1.710921    2.515702
H      -0.156215   -2.914572    1.602295
H       0.968418   -0.335230    2.114019
H       2.259609   -0.342835    0.039881
H       2.278076   -2.800801   -0.386886
H       0.566094   -2.743986   -0.852065
H       1.999069   -2.547306   -2.677954
