19

C       0.649561    1.479739    0.288700
C       1.096033    0.236765   -0.439593
C      -0.270336    0.284627    0.199549
C      -0.542404   -0.507371    1.416623
O       0.495393   -0.642284    2.396871
C      -0.320294   -1.689538    2.998335
C      -1.509926   -0.909651    3.614658
C      -1.889547   -0.614223    2.163490
C      -1.139907   -1.854346    1.667333
H       1.101575    1.680498    1.252983
H       0.397436    2.361717   -0.289289
H       1.154725    0.261010   -1.522051
H       1.842205   -0.380920    0.046604
H      -1.125397    0.370028   -0.464414
H       0.259872   -2.433452    3.539851
H      -2.232031   -1.580608    4.087688
H      -1.253909   -0.081650    4.283249
H      -2.804125   -0.186215    1.772449
H      -1.415995   -2.687444    1.036110
