16

C       0.103365    1.403552   -0.094497
N      -0.018788   -0.036760    0.010360
C       0.603342   -0.666266    1.068874
C       1.070391   -0.173156    2.248574
O       1.546992   -1.248561    2.978216
C       1.350794   -2.319156    2.184865
C       1.778059   -3.649703    2.691475
N       0.797580   -2.041894    1.043014
H       1.147848    1.755026   -0.113729
H      -0.399031    1.743750   -1.002487
H      -0.394346    1.879484    0.758318
H       0.100002   -0.545040   -0.853816
H       1.135547    0.793450    2.711746
H       2.852828   -3.665563    2.900496
H       1.258830   -3.901100    3.622103
H       1.549589   -4.406241    1.940666
