23

C       0.302573    1.560180    0.116033
C       0.120690    0.040946    0.000074
C       0.992921   -0.685158    1.034507
C      -1.349358   -0.401616    0.139448
C      -2.273682   -0.059259   -1.033283
C      -3.685615   -0.731740   -1.098021
C      -4.334874    0.624219   -1.497616
C      -3.007218    1.298708   -1.120136
O      -2.698096    2.432966   -0.889519
H       1.348101    1.837720   -0.055763
H      -0.325158    2.109305   -0.588436
H       0.030716    1.902529    1.122088
H       0.460689   -0.269940   -0.999340
H       0.677850   -0.435532    2.054987
H       0.931799   -1.773157    0.923480
H       2.044152   -0.395528    0.935205
H      -1.372134   -1.494012    0.251339
H      -1.769131    0.006391    1.069443
H      -1.743457   -0.218640   -1.982967
H      -3.794410   -1.552236   -1.808326
H      -4.015125   -1.071703   -0.112790
H      -4.538085    0.714445   -2.569768
H      -5.217345    0.961703   -0.948880
