16

O      -0.159361    1.432138    0.175235
C      -0.110474    0.036915    0.094364
C      -0.426910   -0.823778    1.277184
C      -1.537386   -0.170216    2.115627
C      -2.422397   -0.185833    0.857211
C      -3.871171   -0.315252    0.735148
O      -3.208838    0.914892    0.402130
C      -1.341842   -0.819320    0.017834
H      -0.953992    1.732392   -0.278034
H       0.716007   -0.327664   -0.514645
H       0.233495   -1.610022    1.619423
H      -1.922257   -0.814226    2.909514
H      -1.304025    0.819240    2.514448
H      -4.300375   -0.857745   -0.107047
H      -4.493996   -0.280004    1.628343
H      -1.489833   -1.566809   -0.752795
