10

O       0.109525    1.354635   -0.067174
C       0.069313    0.004047   -0.075885
C      -0.025360   -0.812572   -1.173558
N      -0.028661   -2.093281   -0.639622
C       0.061579   -1.979535    0.706795
N       0.122804   -0.716322    1.082917
H       0.176741    1.612515    0.860128
H      -0.087642   -0.618327   -2.228910
H      -0.087627   -2.949408   -1.163602
H       0.078856   -2.835031    1.364303
