21

C       0.027630    1.497681    0.019949
C       1.373264    0.802655   -0.032545
C       2.217006    0.222685    1.110384
C       1.544112   -1.160784    1.337100
C       0.070122   -0.730796    1.311041
C       0.070583    0.000039   -0.044902
C      -0.027987   -0.988517   -1.154659
C       0.796174   -2.033970   -1.019054
C       1.762937   -2.166709    0.153491
H      -0.332148    1.936099    0.947055
H      -0.237428    2.071417   -0.864306
H       1.877939    0.896919   -0.988034
H       3.269628    0.147968    0.820152
H       2.176128    0.814651    2.033451
H       1.863962   -1.630563    2.274524
H      -0.641563   -1.559307    1.329341
H      -0.158911   -0.059391    2.146026
H      -0.720332   -0.888060   -1.985902
H       0.796567   -2.846984   -1.740913
H       2.796745   -2.087901   -0.214640
H       1.680014   -3.189849    0.544492
