14

C       0.058684   -3.729241    0.197482
C       0.040085   -2.525694    0.101739
C       0.016820   -1.169521   -0.007440
C      -0.006180    0.036277   -0.102654
C      -0.016108    1.486274   -0.230563
C       1.380726    2.089005   -0.261872
C       1.630009    3.450677    0.222818
O       2.007790    2.308761    0.995918
H       0.077405   -4.787163    0.283770
H      -0.544254    1.768946   -1.151906
H      -0.570444    1.933221    0.603867
H       2.038946    1.679109   -1.028082
H       2.452071    4.031732   -0.191696
H       0.805237    4.036007    0.627994
