19

C      -0.011645    1.565584   -0.030054
C       1.530460    1.858009   -0.019825
C       1.995741    0.421984    0.037927
O       3.321480   -0.019618    0.071578
C       3.131452   -1.458303    0.120614
C       1.596217   -1.575087    0.104171
C       1.090688   -0.413073    1.003366
C      -0.027341    0.018460    0.025210
C       1.116120   -0.480937   -0.889173
H      -0.520926    2.011411    0.830030
H      -0.497245    1.948196   -0.933200
H       1.871947    2.377331   -0.919696
H       1.848185    2.440786    0.849368
H       3.613455   -1.920453   -0.749149
H       3.589496   -1.856517    1.033858
H       1.155869   -2.572096    0.134005
H       1.093064   -0.359569    2.094082
H      -0.993420   -0.486428    0.030333
H       1.147821   -0.505679   -1.980463
