19

O      -0.081904    1.511989    0.030870
C       0.087930    0.118058    0.094274
C      -0.044881   -0.612320    1.455736
C      -1.576507   -0.204321    1.439659
C      -1.223094   -0.728846    0.016476
O      -1.869783   -1.123718   -1.142160
C      -1.139922   -2.295405   -1.604516
C       0.025178   -2.618900   -0.590316
C      -0.491505   -1.895884    0.658655
H       0.754191    1.928283    0.261198
H       0.916154   -0.204709   -0.543811
H       0.625018   -0.551341    2.311635
H      -2.244670   -0.832853    2.032378
H      -1.786725    0.857431    1.547399
H      -1.853462   -3.124572   -1.668401
H      -0.757300   -2.094259   -2.610194
H       0.129151   -3.697166   -0.449669
H       0.978379   -2.245600   -0.968642
H      -1.142946   -2.545426    1.249553
