17

N      -0.002148    1.510106   -0.003512
C       0.013945    0.051627   -0.005822
C       0.595966   -0.536478   -1.232701
N       1.035260   -0.961223   -2.214081
C       0.773273   -0.461669    1.244850
O       2.085672    0.047770    1.275574
C       0.033396   -0.087267    2.528143
C       0.682524   -0.262770    3.831191
O       0.576490    1.036769    3.224113
H       0.954406    1.844653   -0.077930
H      -0.502838    1.861728   -0.813122
H      -1.020938   -0.307676    0.061045
H       0.833603   -1.555039    1.172444
H       2.052805    0.805015    1.882349
H      -1.054047   -0.103221    2.476296
H       0.076335   -0.402868    4.723199
H       1.690775   -0.669064    3.870738
