19

C      -0.117877    1.498952   -0.016980
C      -0.015452    0.005407    0.021100
C       0.004010   -0.951390   -1.148720
C       1.272401   -1.791889   -1.078124
O       1.831279   -1.520370    0.213033
C       0.807561   -0.900983    0.977782
C      -0.444436   -1.826205    1.158084
C      -1.044782   -1.103689   -0.046871
O      -2.394377   -0.938427   -0.299407
H       0.836628    1.957410   -0.299598
H      -0.872055    1.815720   -0.744127
H      -0.408581    1.906405    0.957805
H      -0.369040   -0.602230   -2.104946
H       1.079208   -2.868627   -1.186805
H       2.000493   -1.500045   -1.844466
H       1.253843   -0.474968    1.875602
H      -0.264905   -2.905878    1.108356
H      -0.998354   -1.585398    2.070027
H      -2.716543   -1.716290   -0.768209
