18

N      -0.522842    1.305156    0.791611
C      -0.035366    0.329988   -0.027772
O       1.133696    0.284799   -0.364356
C      -1.045205   -0.701272   -0.497097
C      -1.073791   -0.957752   -2.040122
C      -1.096913   -2.452439   -1.726282
C      -2.025346   -3.474670   -2.210153
O      -0.634898   -3.479119   -2.574795
C      -0.620961   -2.193928   -0.298076
H       0.112472    2.010406    1.127887
H      -1.486152    1.345026    1.071960
H      -2.046288   -0.510924   -0.101774
H      -1.899911   -0.531491   -2.613113
H      -0.118271   -0.663565   -2.482416
H      -2.335680   -4.284776   -1.550755
H      -2.717452   -3.242890   -3.019256
H       0.467785   -2.263646   -0.227649
H      -1.086438   -2.752460    0.516715
