17

C      -0.354558    1.413052    0.013294
N      -0.018277   -0.003809   -0.023491
C       0.007167   -0.699398   -1.230251
C       0.303573   -1.994661   -1.356210
C       0.646495   -2.843968   -0.173190
C       0.624773   -2.103967    1.152769
O       0.880053   -2.654188    2.198135
C       0.270238   -0.615433    1.180541
N       0.239797    0.045558    2.274185
H       0.469146    1.990602    0.443202
H      -0.556085    1.757935   -1.001577
H      -1.233831    1.581383    0.642162
H      -0.240501   -0.088580   -2.089946
H       0.296219   -2.445065   -2.340581
H      -0.036034   -3.700155   -0.070982
H       1.643979   -3.297031   -0.268498
H       0.483384   -0.597729    3.030588
