17

C       0.003131    1.489545    0.052120
C      -0.058453    0.002711   -0.025995
C      -0.070257   -0.810966   -1.088938
C       0.002729   -2.229830   -0.543974
C      -0.858300   -2.107922    0.722903
C      -0.006857   -0.906795    1.214381
C       1.382015   -1.574596    1.134009
O       2.341375   -1.435182    1.834733
O       1.343415   -2.406215    0.052777
H       0.920449    1.816082    0.556872
H      -0.020831    1.943425   -0.941913
H      -0.835133    1.889799    0.635699
H      -0.031269   -0.539178   -2.134960
H      -0.159237   -3.061887   -1.224242
H      -1.896784   -1.840933    0.523039
H      -0.800584   -2.992217    1.364111
H      -0.214974   -0.449947    2.178855
