17

C      -0.858749    1.020905    0.154311
C       0.556957    0.460482    0.004172
C       1.031270   -0.334017    1.179699
C       0.390947   -0.630064    2.344981
N       1.285345   -1.398366    3.092426
C       1.076935   -1.937169    4.360871
O       1.890410   -2.592632    4.954150
C       2.427144   -1.519377    2.319751
N       2.307940   -0.901013    1.182993
H      -0.932363    1.690969    1.017424
H      -1.145653    1.589909   -0.733988
H      -1.592593    0.218933    0.287438
H       0.618827   -0.173266   -0.889748
H       1.269292    1.276593   -0.171825
H      -0.586617   -0.385535    2.724262
H       0.074703   -1.688275    4.752880
H       3.280682   -2.074385    2.675576
