19

C       0.120353    1.514358    0.068156
N      -0.111095    0.082601   -0.116324
C       0.641486   -0.517413   -1.211453
C       2.105636   -0.456882   -0.980119
N       3.220636   -0.341741   -0.695836
C       0.192216   -1.975908   -1.482775
C      -1.317317   -2.050256   -1.739286
N       1.022520   -2.510656   -2.563604
H       1.175947    1.780890    0.230903
H      -0.235041    2.054385   -0.816184
H      -0.462357    1.859577    0.926132
H       0.109441   -0.410333    0.743962
H       0.431044    0.071451   -2.115470
H       0.432721   -2.558307   -0.583503
H      -1.578433   -1.490114   -2.645825
H      -1.620647   -3.091250   -1.889084
H      -1.888712   -1.628731   -0.909756
H       0.923485   -3.519185   -2.613508
H       0.703005   -2.148401   -3.458763
