18

O       0.102861    1.426395    0.003177
C       0.094902    0.017432    0.086427
C      -1.328402   -0.528163    0.013125
O      -1.856918   -0.037514   -1.219735
C      -1.380850   -2.042946    0.071829
C      -1.871030   -2.730469    1.334119
C      -2.728841   -2.698883    0.096877
O      -3.824042   -1.822530    0.021036
H      -0.489917    1.638307   -0.728956
H       0.689829   -0.438350   -0.723268
H       0.554384   -0.261252    1.040336
H      -1.901665   -0.108288    0.851208
H      -2.793993   -0.265612   -1.221629
H      -0.614277   -2.548531   -0.508898
H      -1.424282   -3.672553    1.632194
H      -2.166011   -2.086329    2.156486
H      -2.856951   -3.625905   -0.459939
H      -4.530663   -2.156707    0.582485
