18

C      -0.186309    1.559032   -0.044585
C      -0.003258    0.029747   -0.026185
C       0.728406   -0.492304    1.172636
C       2.048338   -0.823015    1.309691
N       3.102155   -0.824398    0.420969
O       2.311956   -1.298646    2.531138
N       1.111092   -1.293739    3.290721
C       0.205092   -0.823973    2.460844
N      -1.130405   -0.761753    2.835520
H       0.780207    2.073644   -0.038617
H      -0.737573    1.880314   -0.934389
H      -0.739475    1.905175    0.835353
H      -0.988553   -0.450600   -0.078613
H       0.523889   -0.281299   -0.936863
H       3.072878   -0.085212   -0.265424
H       4.004762   -0.891686    0.870666
H      -1.255287   -0.904671    3.829675
H      -1.604483    0.074880    2.524956
