21

C      -0.711718    1.254091   -0.141019
C      -0.031251   -0.097528    0.013259
C       1.235574   -0.390744   -0.880836
O       1.792476    0.670889   -1.603787
C       2.032560   -0.772787    0.405777
C       2.876197   -2.016016    0.448594
O       2.741539    0.412048    0.876125
C       1.681308    0.720161    1.822999
C       0.797486   -0.416202    1.293826
H       0.009299    2.075959   -0.138554
H      -1.245930    1.306325   -1.094755
H      -1.436109    1.428352    0.662130
H      -0.768563   -0.893554   -0.135579
H       1.082493   -1.224344   -1.574057
H       2.356021    1.139561   -0.968155
H       3.724618   -1.916621   -0.237854
H       3.268838   -2.195750    1.454019
H       2.291303   -2.888667    0.139948
H       2.032477    0.576619    2.851914
H       1.314459    1.746149    1.713901
H       0.358668   -1.091261    2.028140
