22

C      -0.071597    1.382861    0.035730
O      -0.005853   -0.021748    0.006084
C       0.643104   -0.511275   -1.149923
C       0.647765   -2.031902   -1.058891
C       1.332364   -2.654799   -2.272801
O       1.790447   -1.946938   -3.158201
N       1.410204   -4.024190   -2.326289
C       2.055835   -4.651016   -3.467401
C       0.896775   -4.936196   -1.324869
H       0.930737    1.840332    0.030874
H      -0.632411    1.785209   -0.823096
H      -0.585119    1.668815    0.957236
H       0.123480   -0.184359   -2.062652
H       1.672318   -0.128860   -1.216603
H       1.153587   -2.331768   -0.133895
H      -0.385846   -2.386539   -0.973657
H       2.913185   -5.254471   -3.142722
H       1.354354   -5.311173   -3.993449
H       2.395650   -3.867665   -4.142227
H       0.427117   -4.401377   -0.502690
H       0.150760   -5.613279   -1.762668
H       1.705107   -5.555325   -0.912602
