19

C       0.130696    1.326151    0.175748
O      -0.153787   -0.014412   -0.175273
C       0.584955   -0.534742   -1.254399
C       0.156018    0.085999   -2.577928
C       2.134062   -0.783853   -0.993729
C       1.678363   -1.873852    0.042878
C       0.699659   -2.099083   -1.166323
C       1.974631   -1.927321   -2.001258
O       2.563759   -2.448154   -2.898226
H       1.195239    1.469280    0.408667
H      -0.154005    2.035987   -0.612168
H      -0.457895    1.546256    1.069357
H       0.410448    1.149134   -2.623810
H       0.641150   -0.404480   -3.425465
H      -0.927881   -0.007577   -2.694842
H       2.935824   -0.054494   -0.899716
H       2.387179   -2.672916    0.261394
H       1.197350   -1.480664    0.934477
H      -0.105992   -2.824422   -1.254912
