15

O      -0.860455    1.096929   -0.367541
C       0.225484    0.860263    0.091347
C       1.414913    1.770131   -0.039428
C       2.241216    1.911287    1.184167
O       2.667383    1.083362    0.111842
C       1.351803    2.836958   -1.089323
C       2.581857    3.541837   -1.517588
N       1.930602    2.575432   -2.419064
H       0.444761   -0.063736    0.671644
H       2.791678    2.840086    1.316041
H       1.965808    1.384892    2.097296
H       0.394736    3.348879   -1.121617
H       2.523149    4.579314   -1.833030
H       3.520672    3.251736   -1.054148
H       2.452694    1.701379   -2.385718
