21

C      -0.527662    1.435802   -0.056195
C      -0.070093   -0.037956   -0.022588
C       0.734139   -0.428195   -1.243149
C       1.972031    0.017413   -1.528434
C       2.843893    0.804851   -0.689359
C       2.855473    0.853765    0.669753
C       3.923703    1.641562    1.391811
C       1.957732    0.081479    1.510054
C       0.726693   -0.375770    1.217386
H       0.329837    2.111989   -0.073679
H      -1.132215    1.626858   -0.948969
H      -1.131551    1.669371    0.826999
H      -0.974734   -0.655504   -0.010678
H       0.252091   -1.094639   -1.954566
H       2.388114   -0.253935   -2.497445
H       3.640235    1.335491   -1.207948
H       4.608299    2.128470    0.692919
H       3.482433    2.416849    2.030245
H       4.514518    0.993303    2.051034
H       2.354965   -0.167188    2.493833
H       0.242830   -1.024303    1.944612
