17

C       0.095337    1.485533   -0.736183
O      -0.204274    0.111049   -0.831351
C       0.923851   -0.735340   -0.952248
C       1.709839   -0.900211    0.350343
C       0.453296   -2.098377   -1.493907
C      -0.928718   -2.168167   -2.103678
O       1.195125   -3.052278   -1.445015
H       0.615935    1.739412    0.197586
H       0.716184    1.822373   -1.581242
H      -0.855469    2.023506   -0.760959
H       1.599710   -0.333053   -1.730584
H       2.202107    0.030824    0.642060
H       1.037943   -1.207758    1.157412
H       2.468714   -1.672680    0.214023
H      -1.034019   -1.423880   -2.899478
H      -1.101285   -3.171716   -2.493691
H      -1.680944   -1.913622   -1.350941
