16

C       0.238300    1.463734   -0.019550
C       0.064629   -0.018817   -0.082271
C       0.018922   -0.906865   -1.148473
C       0.124315   -0.600454   -2.618888
C       1.316547    0.180941   -2.965496
N       2.248009    0.816595   -3.218588
C      -0.170629   -2.173895   -0.554997
N      -0.241594   -2.100312    0.768976
N      -0.096631   -0.785744    1.024512
H       1.068241    1.787126   -0.654148
H      -0.661015    1.990303   -0.359535
H       0.447066    1.792483    1.002786
H       0.151602   -1.535725   -3.188208
H      -0.751752   -0.048111   -2.984026
H      -0.254991   -3.132665   -1.047191
H      -0.100450   -0.472107    1.981291
