19

C      -0.007803    1.537372   -0.002225
C      -0.020246    0.028672   -0.035614
C       0.231695   -0.811848   -1.311043
C      -0.346658   -1.933747   -0.430169
O       0.670801   -2.110983    0.539906
C       0.731587   -0.744026    1.094451
C      -0.248844   -0.771296    2.243924
C      -1.471301   -0.886920    1.703527
C      -1.320635   -0.820557    0.223187
H       1.001342    1.927374   -0.178455
H      -0.663929    1.952815   -0.773894
H      -0.347343    1.910673    0.969382
H      -0.429361   -0.507355   -2.126825
H       1.256246   -0.947627   -1.665772
H      -0.706213   -2.894322   -0.794759
H       1.770017   -0.483990    1.299202
H       0.024677   -0.858618    3.287441
H      -2.400096   -1.073050    2.228963
H      -2.188967   -0.586130   -0.391574
