19

O      -0.113595    1.465180    0.072172
C       0.056427    0.046686    0.046973
C      -1.338575   -0.551485   -0.060470
O      -2.151898   -0.020287    0.976176
C      -2.081385   -0.556168   -1.444063
C      -2.310384   -2.067463   -1.301355
C      -0.970244   -2.769100   -1.200502
C      -1.495640   -2.071618    0.004640
O      -1.650095   -2.724850    1.204663
H       0.712160    1.871281    0.349547
H       0.679215   -0.263186   -0.802483
H       0.526715   -0.311290    0.974158
H      -1.894262    0.907407    1.060339
H      -2.994603    0.037167   -1.381092
H      -1.497063   -0.239619   -2.315242
H      -3.211610   -2.604503   -1.568066
H      -1.034411   -3.850273   -1.123354
H      -0.103079   -2.414265   -1.755331
H      -2.168349   -2.124732    1.758758
