21

C       0.042098    1.469494    0.299973
O       0.028779    0.060985    0.276148
C      -1.225785   -0.476601   -0.082876
C      -1.124812   -1.999561   -0.095157
C      -0.858428   -2.589579    1.340358
C      -2.358851   -2.979765    1.425772
C      -2.502380   -2.714326   -0.096858
C      -0.125834   -2.470634   -1.127376
O      -0.293393   -3.416695   -1.858060
H       1.046693    1.781980    0.594127
H      -0.189668    1.896659   -0.688019
H      -0.683051    1.870017    1.025648
H      -2.000566   -0.159645    0.636311
H      -1.537754   -0.105951   -1.075372
H      -0.196845   -3.459074    1.313939
H      -0.470623   -1.876519    2.069647
H      -2.579801   -3.992227    1.769700
H      -2.937346   -2.279641    2.033777
H      -3.358126   -2.116479   -0.422356
H      -2.456311   -3.622098   -0.701176
H       0.819337   -1.888097   -1.150693
