23

C       0.543786    1.467313    0.122431
C      -0.077534    0.082623   -0.037525
C       0.422251   -0.707159   -1.277877
C       1.134942   -1.932814   -0.717660
C       1.110353   -3.202593   -1.535198
C       2.316475   -1.638627    0.200251
C       0.935973   -1.874330    0.773670
C       0.620325   -3.032032    1.679517
O       0.203952   -0.722422    1.119360
H       1.637162    1.417032    0.128754
H       0.236255    2.118897   -0.702893
H       0.217468    1.923656    1.061235
H      -1.168739    0.199274   -0.080466
H      -0.420265   -1.025171   -1.900982
H       1.074590   -0.091777   -1.907769
H       1.655319   -3.073540   -2.477933
H       1.578335   -4.035449   -1.001606
H       0.084245   -3.498171   -1.784138
H       3.053183   -2.428292    0.316734
H       2.726028   -0.634841    0.235628
H       1.198186   -3.917619    1.402550
H       0.865026   -2.780869    2.716794
H      -0.444973   -3.281106    1.635227
