16

O      -0.103012    1.322798   -0.187069
N       0.063436   -0.065972   -0.065988
C      -1.054633   -0.652394    0.050926
C      -1.214785   -2.149640    0.168429
C      -2.720922   -2.274021    0.458083
O      -3.317195   -1.142567   -0.177218
C      -2.452700   -0.030840    0.044571
C      -2.750109    0.658390    1.305101
C      -3.014951    1.193150    2.348001
H       0.804870    1.633975   -0.268421
H      -0.959910   -2.631085   -0.781561
H      -0.580953   -2.579851    0.946945
H      -3.181098   -3.167998    0.033586
H      -2.915938   -2.253396    1.539804
H      -2.569884    0.662267   -0.794433
H      -3.247392    1.679699    3.263013
