20

C       0.087019    1.578148    0.131209
C      -0.108950    0.062908    0.011087
C       0.632074   -0.533240   -1.180823
C       2.182485   -0.636276   -1.189962
N       2.160374   -2.107140   -1.518402
C       1.483606   -2.742159   -0.384334
C       0.621252   -2.058487   -1.382354
C      -0.277520   -2.752837   -2.242934
C      -1.071148   -3.304874   -2.959927
H       1.145156    1.834543    0.254048
H      -0.276653    2.096655   -0.762717
H      -0.453583    1.980227    0.993174
H       0.222265   -0.423678    0.936695
H      -1.177729   -0.165544   -0.089595
H       0.290441   -0.049769   -2.100914
H       2.666911   -0.078347   -1.992366
H       2.692199   -0.418540   -0.244124
H       1.504483   -3.826344   -0.427884
H       1.604543   -2.322078    0.612634
H      -1.761233   -3.800902   -3.596418
