23

C      -0.031006    1.414464    0.102138
O      -0.000686    0.002248    0.096917
C      -1.263976   -0.584105   -0.008118
C      -2.237481   -0.486212    1.190861
C      -2.539767   -2.007777    1.024695
C      -1.389982   -2.140377   -0.021855
C      -1.794316   -2.094474   -1.519900
C      -2.961833   -2.920023   -2.039204
C      -1.942218   -0.542255   -1.418212
H       1.002832    1.759291    0.179401
H      -0.470789    1.820299   -0.820967
H      -0.600147    1.808845    0.956901
H      -1.693235   -0.278728    2.116650
H      -3.079213    0.207747    1.108660
H      -2.396846   -2.600054    1.930361
H      -3.536156   -2.228469    0.635092
H      -0.562911   -2.791359    0.264025
H      -0.903825   -2.323849   -2.115288
H      -3.887391   -2.710901   -1.492514
H      -3.152477   -2.701823   -3.096066
H      -2.759353   -3.993663   -1.953203
H      -2.978290   -0.188804   -1.403438
H      -1.390645    0.025844   -2.170773
