12

O       0.287939    1.010211   -0.724549
C      -0.127896    0.246485    0.375838
C      -1.442781   -0.443813    0.149173
C      -2.173976   -0.685378   -0.988471
N      -3.303409   -1.380014   -0.593137
N      -3.313652   -1.568831    0.634048
O      -2.082195   -0.958707    1.177358
C      -1.889265   -0.362449   -2.336080
N      -1.628433   -0.115873   -3.436405
H       0.572533    0.428847   -1.438108
H       0.612039   -0.508666    0.683675
H      -0.244130    0.933922    1.220394
