23

C       0.631819    1.268411    0.000786
O       0.326196   -0.104037    0.034383
C       0.783579   -0.741055    1.208169
C       0.401256   -2.208672    1.132992
C       1.198121   -3.052214    0.095549
C       1.987010   -3.751819    1.245023
C       3.446784   -3.330336    1.392051
C       0.987455   -3.113355    2.265805
O       1.475473   -2.527612    3.452127
H       1.718876    1.447506    0.035284
H       0.239115    1.669602   -0.936832
H       0.170825    1.812167    0.840886
H       1.878431   -0.613872    1.296206
H       0.336346   -0.277735    2.103285
H      -0.686318   -2.263735    1.031598
H       0.569980   -3.734396   -0.481158
H       1.800389   -2.469156   -0.606494
H       1.939423   -4.844935    1.225844
H       3.572763   -2.240857    1.366445
H       3.874759   -3.698094    2.330679
H       4.045141   -3.734241    0.568917
H       0.244328   -3.842962    2.598224
H       2.234621   -1.978025    3.233565
