18

O       0.554963    0.573468   -0.799591
C      -0.041853   -0.321243    0.118122
C       0.500088   -0.194817    1.570659
C      -0.663595   -0.518221    2.489456
C      -1.934431   -0.502716    1.678171
C      -1.585125   -0.169364    0.239490
C      -1.437941   -1.816223    2.276481
C      -0.942071   -2.901266    1.478978
N      -0.546369   -3.783288    0.842231
H       0.374647    1.472224   -0.502177
H       0.197537   -1.310110   -0.275793
H       1.379028   -0.824773    1.733828
H       0.809735    0.842976    1.749096
H      -0.639734   -0.151993    3.509579
H      -2.863383   -0.124863    2.090018
H      -1.859310    0.875566    0.045313
H      -2.113910   -0.782097   -0.496001
H      -1.995638   -2.156243    3.143583
