16

C       0.032769    1.555358    0.101470
C      -0.016170    0.061421    0.088770
N      -0.216931   -0.581686   -1.037805
O      -0.203363   -1.938805   -0.709247
C       0.007752   -2.071210    0.613988
C       0.012531   -3.460891    1.152181
C      -1.400204   -4.036675    1.266197
O      -1.798069   -4.641271    2.224073
C       0.131013   -0.843229    1.182432
H       0.998942    1.911468    0.473295
H      -0.118832    1.943630   -0.907252
H      -0.742636    1.966195    0.756086
H       0.571278   -4.111763    0.465918
H       0.487727   -3.503614    2.133743
H      -2.039426   -3.857824    0.374900
H       0.303428   -0.610637    2.220377
