20

C      -0.177454    1.531714   -0.078985
C       0.048955    0.037290   -0.087839
C       0.737161   -0.731848   -1.145164
C       1.910506    0.029447   -1.768831
C       2.423312    0.173773   -0.337863
C       3.845122    0.047644    0.125747
C       3.078249    1.341749    0.314494
O       3.331091    2.439763   -0.515040
N       1.330570   -0.634029    0.264047
H       0.612069    2.093180   -0.580590
H      -1.125813    1.760108   -0.577675
H      -0.248765    1.901040    0.949960
H      -0.764548   -0.515767    0.379751
H       0.348967   -1.672723   -1.522991
H       2.549361   -0.606756   -2.384817
H       1.676747    0.942863   -2.322177
H       4.038510   -0.558945    1.004539
H       4.614101    0.026139   -0.640352
H       2.763606    1.584913    1.329619
H       4.162985    2.839682   -0.240139
