21

C      -0.128339    1.524012   -0.168675
C      -0.056012    0.010800   -0.032604
C       1.158388   -0.639763   -0.839742
O       1.722888    0.020934   -1.938350
C       1.876048   -0.665073    0.485482
C       2.954973   -0.210918    1.116801
C       2.595409    0.116956    2.563648
C       1.036562    0.270080    2.528573
C       0.608164   -0.547533    1.289798
H       0.819765    2.003138    0.102574
H      -0.361000    1.805006   -1.200499
H      -0.903499    1.943269    0.480435
H      -1.025355   -0.435962   -0.271618
H       0.873984   -1.634676   -1.197151
H       2.124549    0.833983   -1.613135
H       3.934510   -0.024539    0.690978
H       2.905005   -0.681743    3.252494
H       3.092455    1.029096    2.912503
H       0.562014   -0.069535    3.453368
H       0.780034    1.327364    2.404000
H       0.154133   -1.507154    1.560713
