21

C      -0.450051    1.330299    0.294539
C       0.398687    0.077354    0.252041
C       0.704215   -0.561001   -1.120735
C       2.186330   -0.346307   -0.730999
O       1.809884    0.359513    0.466066
C       2.974962   -1.612474   -0.454268
C       3.538050   -2.302389   -1.676449
C       3.586717   -1.798168    0.868029
O       2.370413   -2.474738    0.519033
H      -0.113893    2.055652   -0.453159
H      -1.499909    1.085876    0.097920
H      -0.389342    1.800874    1.281045
H       0.050436   -0.652792    0.992492
H       0.395137   -1.599487   -1.244182
H       0.368281    0.031218   -1.974190
H       2.766037    0.297774   -1.406129
H       4.281337   -1.670998   -2.174979
H       4.012141   -3.245359   -1.394847
H       2.745683   -2.523563   -2.400396
H       4.462468   -2.438827    0.965857
H       3.473520   -1.016393    1.613783
