19

C      -0.318337    1.517978    0.039250
C       0.067042    0.039780   -0.016338
O       0.739254   -0.309522   -1.241815
C       2.119515   -0.567038   -1.074252
C       2.831199    0.599795   -0.337078
C       2.459509   -0.122015    0.971639
C       2.378990   -1.464938    0.220118
O       1.168844   -1.868788    0.856609
C       0.927344   -0.455927    1.139350
H       0.539601    2.175996    0.195857
H      -0.803746    1.805187   -0.897379
H      -1.028090    1.686744    0.856672
H      -0.852886   -0.558585   -0.008838
H       2.498537   -0.902002   -2.040452
H       3.916204    0.564227   -0.481291
H       2.477229    1.609977   -0.546551
H       3.010988    0.031740    1.898961
H       3.150468   -2.235295    0.171243
H       0.470228   -0.300085    2.119683
