16

N      -0.067469    1.255599    0.253896
C      -0.007090    0.016688    0.007876
O       1.179539   -0.631139   -0.192613
C       1.118102   -1.868375   -0.918093
C       0.165903   -2.839273   -0.247521
N      -1.191681   -2.272469   -0.198264
C      -1.612267   -1.709116    1.077769
C      -1.253623   -0.807762   -0.056251
H       0.870922    1.661153    0.243689
H       0.805987   -1.671149   -1.952015
H       2.139828   -2.253951   -0.932173
H       0.132264   -3.776728   -0.814033
H       0.541185   -3.072233    0.757561
H      -2.657250   -1.848381    1.339648
H      -0.918005   -1.761205    1.914629
H      -2.056988   -0.326909   -0.604925
