17

C      -0.034866    1.480512    0.079215
C       0.003228   -0.021322    0.037971
C      -1.223091   -0.891705    0.295544
C      -0.674987   -2.342640    0.474137
C      -0.082144   -2.289825   -0.903002
C       0.834441   -2.209154    0.311865
C       1.210310   -0.775004    0.528685
O       2.227206   -0.315275    0.984067
C      -0.628945   -0.838761   -1.084497
H       0.780977    1.904386   -0.514421
H      -0.979876    1.867869   -0.313253
H       0.082773    1.842231    1.105372
H      -2.159621   -0.497392    0.665406
H      -1.146297   -3.159886    1.001664
H      -0.000819   -3.057840   -1.659208
H       1.500787   -3.020714    0.567590
H      -1.015571   -0.395438   -1.991885
