18

C      -0.015445    1.391368    0.008480
N      -0.021184   -0.049273   -0.000270
C      -1.215463   -0.862831    0.003640
C      -0.668448   -2.265570   -0.007017
C       0.665258   -2.235153   -0.015452
C       1.645416   -3.355519   -0.027378
O       0.944143   -4.585859   -0.029349
C       1.124716   -0.813641   -0.011210
O       2.270513   -0.399897   -0.015998
H       1.028875    1.710474    0.002288
H      -0.520606    1.803164   -0.874566
H      -0.506707    1.792479    0.904232
H      -1.836261   -0.670079    0.892357
H      -1.848103   -0.661221   -0.874689
H      -1.294181   -3.146474   -0.007508
H       2.296053   -3.248928   -0.910882
H       2.307048   -3.258032    0.848985
H       1.590932   -5.296776   -0.037012
