17

O       0.676338    0.015012    0.128189
C       0.724053    1.178710    0.384704
O       0.617825    2.126967   -0.587341
C       0.799851    3.469977   -0.190963
C      -0.165562    4.446821   -0.792902
C      -0.260497    4.107133    0.676065
C       2.236782    3.858278   -0.029281
O       3.062757    2.940332    0.685679
C       3.319934    3.143901   -0.712588
H       0.834542    1.607705    1.392623
H       0.209129    5.422340   -1.082174
H      -0.914403    4.029071   -1.454974
H      -1.085847    3.479043    0.990446
H       0.053679    4.844401    1.406592
H       2.385528    4.906171    0.235025
H       3.077698    2.300337   -1.353597
H       4.247059    3.666461   -0.939480
