15

O       0.302838    1.282400    0.035892
C       0.129345   -0.041605   -0.014615
N       0.293883   -0.824458   -1.056188
C      -0.017275   -2.056377   -0.536207
N      -0.348568   -2.071591    0.743853
N      -0.253079   -0.735586    1.066941
N      -0.050642   -3.189409   -1.337960
C       1.203548   -3.747750   -1.838674
C       0.413837   -4.454248   -0.788061
H       0.556657    1.562170   -0.852936
H      -0.464168   -0.410640    1.994253
H       1.178320   -4.086455   -2.869670
H       2.126287   -3.261464   -1.533545
H       0.797576   -4.441590    0.227935
H      -0.188855   -5.319377   -1.046596
