19

O       0.284804    1.171371   -0.037225
C       0.017019   -0.211420   -0.133282
C      -1.476209   -0.549607    0.006523
C      -1.640345   -2.083213   -0.081887
C      -3.023969   -2.523359   -0.238600
N      -4.119067   -2.866073   -0.376999
N      -1.956430   -0.079072    1.301624
C      -2.456597    1.299981    1.355693
C      -3.397595    0.155843    1.435225
H       0.138798    1.428993    0.878340
H       0.364277   -0.523046   -1.124330
H       0.582374   -0.784338    0.618017
H      -2.021786   -0.079659   -0.829969
H      -1.064666   -2.466884   -0.932067
H      -1.226416   -2.535008    0.826113
H      -2.193672    1.856932    2.250958
H      -2.444861    1.880057    0.436385
H      -4.027224   -0.036078    0.570594
H      -3.829429   -0.140666    2.385789
