15

C       1.005977    0.454306    0.713408
C      -0.044122   -0.003542   -0.270448
O      -0.134043    0.434318   -1.396012
C      -1.014146   -1.076478    0.160346
N      -0.750122   -1.833915    1.385969
C      -1.927394   -0.955168    1.361646
C      -1.965046    0.177503    2.245316
C      -2.059668    1.120408    2.985137
H       1.656144    1.183748    0.229647
H       0.531508    0.897613    1.594487
H       1.583197   -0.403003    1.072402
H      -1.461347   -1.581284   -0.693308
H      -1.030796   -2.804971    1.279073
H      -2.898268   -1.426472    1.217904
H      -2.131701    1.953774    3.639805
