19

O       0.094919    1.372856    0.117700
C      -0.006910   -0.021148   -0.009162
C      -1.442125   -0.592542   -0.249886
C      -2.060163    0.239986   -1.396590
C      -1.170139    0.165306   -2.654758
O       0.231908    0.274009   -2.370086
C       0.670649   -0.571413   -1.280246
C       0.108398   -1.976726   -1.329609
C      -1.085766   -1.987527   -0.728772
H       0.197413    1.710839   -0.783062
H       0.425181   -0.475229    0.887612
H      -2.078374   -0.568376    0.638348
H      -3.066347   -0.109375   -1.653840
H      -2.149221    1.275092   -1.050921
H      -1.360111   -0.775459   -3.185594
H      -1.390514    0.985750   -3.343286
H       1.759633   -0.495797   -1.288496
H       0.598319   -2.810709   -1.816389
H      -1.740321   -2.846058   -0.626760
