17

C       0.104484    1.463753    0.062451
C      -0.091962   -0.018127   -0.045459
C      -0.985148   -0.816438    0.821317
N       0.480395   -0.972460    0.975841
C       1.040342   -1.794562   -0.174509
C       0.091064   -2.251001   -1.261474
C       0.510933   -0.816274   -1.222081
C       2.341422   -2.353784   -0.015591
N       3.399944   -2.808684    0.096957
H       1.137175    1.738988   -0.177166
H      -0.558803    1.994222   -0.630593
H      -0.111762    1.807465    1.077320
H      -1.411917   -0.300275    1.676557
H      -1.600610   -1.628788    0.454653
H       0.588957   -2.834495   -2.029194
H      -0.917393   -2.584574   -1.048700
H       1.068899   -0.346335   -2.020664
