19

C       0.007096    1.532462    0.054703
C       0.031783    0.043039   -0.043530
C      -0.007042   -0.756264   -1.128014
C       0.034093   -2.223776   -0.754963
C       0.477552   -2.191280    0.722734
C       0.080773   -0.794589    1.229143
O       1.024814   -0.336074    2.189777
C      -0.104818   -0.328869   -2.523797
O      -0.171840   -1.099420   -3.459250
H       0.872316    1.874602    0.634158
H       0.020288    2.032863   -0.914388
H      -0.887896    1.867925    0.596656
H      -0.959106   -2.675654   -0.872539
H       0.706233   -2.793246   -1.402227
H       0.056517   -2.996701    1.328104
H       1.568259   -2.255040    0.792718
H      -0.927663   -0.810210    1.678181
H       0.603583    0.325775    2.745437
H      -0.111810    0.768662   -2.697287
