25

C      -0.058079    1.532926    0.009711
C       0.045380    0.005004    0.006376
C       0.921992   -0.562319   -1.134494
C       2.365133   -0.272005   -0.644493
C       2.276772   -0.281388    0.912201
C       0.787643   -0.576564    1.232227
C       0.511183   -2.092378    1.304149
C       1.012237   -2.824943    0.044229
C       0.656476   -2.076975   -1.255417
H       0.923042    2.014583    0.068218
H      -0.547139    1.893832   -0.901816
H      -0.647242    1.883194    0.864413
H      -0.971198   -0.403935   -0.053796
H       0.715178   -0.077757   -2.094858
H       3.076151   -1.011381   -1.026147
H       2.706205    0.701585   -1.007608
H       2.940521   -1.025800    1.362947
H       2.573924    0.687529    1.323248
H       0.473145   -0.103414    2.168758
H       0.985872   -2.524190    2.193650
H      -0.569304   -2.246999    1.422226
H       2.101939   -2.931934    0.105440
H       0.615112   -3.845563    0.015546
H      -0.403604   -2.229430   -1.496852
H       1.229064   -2.498412   -2.090604
