19

O      -0.319399    1.530339    0.280050
C      -0.004113    0.136804    0.241225
C      -1.316968   -0.563886   -0.085479
O      -2.293867   -0.222484    0.889927
C      -1.840744   -0.289353   -1.510397
O      -2.653664   -1.406612   -1.865993
C      -2.507238   -2.434040   -0.893768
C      -1.249216   -2.098656   -0.090906
O      -0.050019   -2.467202   -0.759676
H       0.436453    2.007492    0.632722
H       0.755602   -0.087216   -0.514984
H       0.357066   -0.212825    1.218530
H      -2.212990    0.732286    1.010213
H      -2.441966    0.624463   -1.541103
H      -1.012148   -0.194686   -2.224402
H      -3.380988   -2.464258   -0.228327
H      -2.425317   -3.402652   -1.404658
H      -1.284187   -2.496489    0.931116
H      -0.104746   -3.400925   -0.983791
