21

C       0.126071    1.738524    0.024099
C       0.049321    0.221211   -0.010817
C       0.734981   -0.453317   -1.202617
C       1.099303   -1.837065   -0.645134
C       2.199973   -2.601189   -1.373124
C       1.459947   -1.469317    0.818455
O       0.715281   -0.309619    1.151571
C       1.107611   -2.602782    1.761886
O       1.811780   -3.559273    1.959804
H       1.168003    2.070804   -0.017797
H      -0.413595    2.169085   -0.825660
H      -0.320824    2.124333    0.944482
H      -1.007222   -0.088899    0.027205
H       0.092800   -0.502731   -2.086011
H       1.646117    0.095224   -1.472950
H       0.187557   -2.451051   -0.629772
H       3.109600   -1.995281   -1.450999
H       2.453845   -3.519668   -0.835582
H       1.886893   -2.873244   -2.385801
H       2.538346   -1.269730    0.901426
H       0.107256   -2.486531    2.238666
