21

C      -0.048524    1.518934   -0.293426
C      -0.072083    0.009482   -0.132798
C      -0.309613   -0.616234    1.217293
C      -1.366961   -0.708702    0.142904
C       1.316057    2.092359   -0.059703
C       1.930175    2.498177    1.244791
C       1.884148    3.488808    0.094094
C       2.892259    3.055448   -0.960429
O       2.352889    1.706530   -0.981331
H      -0.380132    1.788329   -1.304659
H      -0.752355    1.979953    0.410266
H       0.633628   -0.505345   -0.778111
H       0.242413   -1.512319    1.478130
H      -0.499654    0.044672    2.056986
H      -2.264135   -0.109330    0.263132
H      -1.538109   -1.667884   -0.333224
H       1.231078    2.711031    2.047734
H       2.874077    2.060162    1.559151
H       1.394646    4.451526    0.156644
H       2.752458    3.540385   -1.933549
H       3.955035    3.074451   -0.688936
