20

C       0.020784    1.572025   -0.004722
C       0.028762    0.039042    0.064315
C       0.760461   -0.454572    1.313722
O      -1.306148   -0.461165    0.175853
C       0.682798   -0.539954   -1.206659
C       0.632930   -2.066368   -1.438492
O      -0.108428   -1.855505   -2.686134
C      -0.161959   -0.501927   -2.468474
N      -0.772311    0.402187   -3.093299
H       1.039183    1.974097   -0.005589
H      -0.475878    1.912917   -0.918271
H      -0.509618    1.974827    0.862878
H       0.289038   -0.038704    2.208264
H       0.716161   -1.545109    1.386790
H       1.810326   -0.147412    1.298409
H      -1.825915   -0.052184   -0.527026
H       1.677790   -0.112361   -1.357091
H       1.579555   -2.575801   -1.627744
H       0.018403   -2.619701   -0.726194
H      -1.283905    0.022248   -3.891967
