20

C      -0.000153    1.558245    0.009993
C       0.019322    0.029100    0.005400
C       0.737599   -0.539924   -1.208288
O       0.671376   -1.965210   -1.218363
C       0.951120   -2.667062   -0.085278
O       1.115850   -3.861478   -0.163028
N       1.010794   -1.956544    1.090239
C       1.400040   -2.658221    2.300669
C       0.715441   -0.538651    1.239581
H       1.015698    1.968516   -0.013706
H      -0.539743    1.946380   -0.859248
H      -0.493961    1.942799    0.907829
H      -1.010974   -0.347717   -0.019933
H       0.275403   -0.219831   -2.145773
H       1.789344   -0.217130   -1.220131
H       1.619574   -3.692628    2.044332
H       2.288436   -2.193054    2.747486
H       0.591573   -2.632313    3.042753
H       1.647027    0.019400    1.430896
H       0.084254   -0.404732    2.128457
