14

F       0.129573    0.088530    0.135292
C      -0.019321    1.423234    0.042690
F       1.203215    1.949937   -0.124868
F      -0.724082    1.669211   -1.072164
C      -0.701462    1.993023    1.261659
C      -2.050085    1.323257    1.667578
C      -1.484478    1.189603    3.092699
O      -1.967537    0.928656    4.152771
C      -0.075705    1.610798    2.638056
H      -0.788832    3.071161    1.119970
H      -2.962435    1.912560    1.558961
H      -2.200793    0.345709    1.199197
H       0.602378    0.753958    2.577056
H       0.405508    2.403063    3.214433
