17

C      -0.054470    1.512682   -0.004830
C      -0.008764    0.006777    0.003114
N      -0.072997   -0.620515   -1.171612
C      -0.025311   -1.949548   -1.223158
C       0.089534   -2.734779   -0.075692
O       0.130056   -4.088161   -0.224671
C       0.152074   -2.100718    1.160252
C       0.105560   -0.706305    1.216373
N       0.229069   -0.032289    2.430905
H       0.832816    1.949375    0.470616
H      -0.106664    1.861672   -1.036753
H      -0.932268    1.903930    0.529503
H      -0.078487   -2.424234   -2.198395
H       0.221034   -4.501223    0.640168
H       0.240571   -2.681823    2.076076
H      -0.014439   -0.575651    3.246429
H      -0.195361    0.882939    2.456057
