12

F      -0.558492    0.323725   -0.511763
C       0.061799    1.380980    0.028882
F       1.309681    1.004734    0.336536
F       0.144555    2.327640   -0.915513
C      -0.650164    1.870759    1.206590
C      -1.234692    2.258886    2.181284
C      -1.943637    2.780758    3.336408
C      -2.375229    4.244250    3.159088
O      -2.422770    5.022821    4.069054
H      -2.861785    2.197462    3.501921
H      -1.347442    2.704884    4.251068
H      -2.663178    4.520092    2.122898
