19

O      -0.184517    1.222118    0.769135
C      -0.050751   -0.101333    0.295287
C      -1.376864   -0.611063   -0.241191
C      -1.581433   -2.132371   -0.384725
C      -2.707691   -1.939377    0.653909
C      -2.590743   -2.713393    1.968874
C      -3.601482   -2.330923    2.946268
C      -4.448314   -2.008116    3.735079
O      -2.391440   -0.534881    0.797056
H      -0.933561    1.210168    1.378225
H       0.703000   -0.088770   -0.500618
H       0.306425   -0.781274    1.087183
H      -1.680442   -0.018397   -1.113231
H      -1.892181   -2.488642   -1.366879
H      -0.739714   -2.734667   -0.031441
H      -3.718691   -2.063255    0.246583
H      -2.676776   -3.785101    1.741967
H      -1.586918   -2.556863    2.382846
H      -5.190607   -1.721726    4.438099
