17

C       0.389295    1.384006   -0.000526
C       0.055990   -0.093791    0.055682
C      -1.408966   -0.396317   -0.226902
O       0.900757   -0.878458   -0.868625
C       1.346163   -1.742808    0.187930
C       0.602932   -0.918535    1.246839
O       1.867680   -0.429590    1.778176
C       2.607837   -1.186724    0.880681
O       3.787368   -1.257134    0.794642
H       1.433412    1.563434    0.260297
H       0.211361    1.760869   -1.012411
H      -0.244541    1.947532    0.691499
H      -1.670018   -0.065515   -1.236102
H      -1.611218   -1.469580   -0.159120
H      -2.054176    0.124768    0.488108
H       1.272707   -2.807993   -0.031523
H      -0.059454   -1.275438    2.031954
