17

C      -0.072971    1.455286    0.059506
C      -0.032431    0.000169    0.052662
C       0.016660   -1.202373    0.043507
C       0.060485   -2.658346    0.042262
N      -1.275743   -3.224563   -0.104498
C      -1.457399   -4.576232   -0.094024
N      -0.482612   -5.404939   -0.082696
C      -2.909303   -5.002597   -0.130755
O      -3.245727   -6.156501   -0.140297
H       0.889094    1.875020   -0.253629
H      -0.837628    1.834314   -0.627135
H      -0.297006    1.845786    1.058037
H       0.685079   -3.033907   -0.777905
H       0.529443   -3.035847    0.963175
H      -2.054099   -2.620481    0.101637
H      -0.866261   -6.351142   -0.118316
H      -3.658869   -4.178602   -0.148927
