17

C       0.166591    1.498131   -0.303630
C      -0.103469    0.084447    0.158797
O       0.432287   -0.910364   -0.790331
C       1.243694   -1.464116    0.160468
O       2.032518   -2.345578    0.028257
C       0.758691   -0.546035    1.287086
C       1.821276    0.276259    2.022208
C       2.696773   -0.602995    2.902641
O       2.911802   -0.379167    4.065352
H       1.232081    1.668277   -0.478871
H      -0.366385    1.693120   -1.238341
H      -0.184551    2.215393    0.445102
H      -1.174776   -0.092953    0.285081
H       0.147881   -1.100146    2.006427
H       2.481855    0.770203    1.297565
H       1.366058    1.047290    2.650223
H       3.135498   -1.482569    2.385923
