17

O      -0.211759   -0.080666   -0.370018
C      -0.013375    1.079871   -0.119910
C       1.326216    1.773174   -0.212454
C       1.273569    2.996422   -1.157447
C       2.562328    3.761640   -1.194029
C       2.786733    5.019139   -0.725391
O       4.081400    5.388711   -0.916531
C       4.700753    4.342344   -1.521868
C       3.829510    3.320853   -1.717462
H      -0.849542    1.745106    0.204537
H       1.597429    2.119784    0.794228
H       2.076779    1.047434   -0.536464
H       1.014494    2.651358   -2.166047
H       0.463099    3.663535   -0.840745
H       2.153413    5.753237   -0.254223
H       5.745278    4.482856   -1.745876
H       4.048367    2.370553   -2.179951
