20

C      -0.031941    1.451237    0.100217
C      -0.018378   -0.090692    0.152542
C       0.847615   -0.598547    1.306856
C      -1.444497   -0.620180    0.245806
N      -1.931594   -1.034712    1.339189
N      -2.116608   -0.560246   -0.998313
C      -3.441952   -0.893621   -1.235217
N      -3.822567   -0.724042   -2.556632
O      -4.219126   -1.260851   -0.374856
H       0.983829    1.839015   -0.023054
H      -0.639615    1.834237   -0.726528
H      -0.443098    1.856002    1.030158
H       0.409991   -0.457602   -0.792641
H       0.430489   -0.281620    2.265043
H       0.892533   -1.690363    1.316304
H       1.865785   -0.207119    1.215159
H      -2.906804   -1.310109    1.216549
H      -1.596561   -0.164723   -1.765525
H      -3.133939   -0.846920   -3.283108
H      -4.721180   -1.135306   -2.758888
