21

C      -0.062128    1.581989    0.055142
C      -0.018346    0.053969    0.126092
C      -1.405784   -0.579613   -0.050093
O      -2.000533   -0.216734   -1.290412
C      -1.386268   -2.106341    0.059895
O      -0.569374   -2.563039   -0.997544
C      -1.153947   -2.682026    1.479344
O      -2.551610   -3.008647    1.604840
C      -2.790690   -2.737026    0.208814
H       0.941780    2.009997    0.131760
H      -0.506335    1.907959   -0.888735
H      -0.666373    1.999356    0.868646
H       0.646100   -0.345112   -0.648815
H       0.402538   -0.264947    1.088098
H      -2.080847   -0.195027    0.724621
H      -1.520611   -0.713127   -1.965399
H      -0.665358   -3.517478   -1.076962
H      -0.512016   -3.575471    1.482650
H      -0.816607   -1.995485    2.263669
H      -3.651197   -2.081933    0.043197
H      -2.921198   -3.661310   -0.375791
