18

C      -0.082788    1.465101    0.038961
C      -0.017860   -0.064174   -0.000282
C       0.784238   -0.514444   -1.241438
C       0.816650   -1.968049   -1.387816
N       0.826247   -3.121252   -1.465693
N       0.646016   -0.598869    1.190826
C      -0.137922   -0.470364    2.416702
C       0.540139   -1.126006    3.537405
N       1.062550   -1.653884    4.421602
H       0.920350    1.886149    0.156421
H      -0.524731    1.852934   -0.883621
H      -0.701472    1.821712    0.866496
H      -1.045632   -0.457653   -0.106095
H       0.342352   -0.079049   -2.143038
H       1.812058   -0.143180   -1.161972
H       0.859014   -1.581996    1.046588
H      -0.254171    0.588873    2.670624
H      -1.157491   -0.890727    2.340594
