16

N      -0.195736    1.276824    0.181948
C      -0.108557    0.025245    0.071035
O      -1.235918   -0.727162    0.066279
C      -1.046945   -2.115644   -0.025054
O      -0.537480   -2.611246    1.198124
C      -1.171770   -3.838105    1.558954
C      -2.442084   -3.897521    0.739377
O      -3.235218   -2.718172    0.878870
C      -2.368498   -2.820242   -0.248907
H       0.733107    1.692830    0.157757
H       0.810960   -0.564827   -0.031844
H      -0.344577   -2.337244   -0.846836
H      -0.527639   -4.697853    1.322718
H      -1.356913   -3.821366    2.637655
H      -2.972593   -4.831687    0.580742
H      -2.830173   -2.836342   -1.230969
