17

C      -0.538759    0.985839    0.154383
O      -0.134298   -0.357010   -0.066006
C       0.784991   -0.509607   -1.141324
C       1.546671   -1.737510   -0.953027
C       2.211610   -2.725442   -0.802980
C      -0.010578   -0.456873   -2.461603
O      -0.247128    0.575925   -3.038564
O      -0.468027   -1.656549   -2.829749
C      -1.309293   -1.664670   -3.992286
H       0.323401    1.625063    0.395399
H      -1.056882    1.411337   -0.713350
H      -1.218034    0.963561    1.009021
H       1.471799    0.349094   -1.175587
H       2.789027   -3.607212   -0.671723
H      -2.205361   -1.063451   -3.819558
H      -0.773775   -1.261232   -4.855006
H      -1.573609   -2.708682   -4.156983
