21

C       0.683774   -1.134583    0.267840
C       0.464793    0.045640    0.235486
C       0.166193    1.472277    0.205968
O       1.326657    2.198253   -0.141605
C       1.115265    3.607186   -0.238891
C       1.091988    4.293188    1.156256
C       2.497756    4.929090    1.350197
C       3.360371    4.360343    0.206644
C       2.350202    4.187763   -0.936945
H       0.883988   -2.177089    0.293244
H      -0.639892    1.666941   -0.523118
H      -0.223188    1.781250    1.190251
H       0.188911    3.787945   -0.803943
H       0.300390    5.046132    1.213141
H       0.877349    3.549832    1.929120
H       2.429963    6.018516    1.255320
H       2.917047    4.722900    2.338368
H       4.203279    5.006248   -0.053491
H       3.762482    3.380362    0.483900
H       2.690040    3.537427   -1.746009
H       2.094510    5.164526   -1.365683
