20

N      -0.120135   -1.186029   -0.135490
C      -0.077021   -0.035695   -0.032851
C       0.002245    1.417713    0.092068
C       1.427263    1.960869   -0.144017
C       1.486708    3.478708    0.001995
C       1.303265    4.134698    1.419173
C       2.643030    4.858310    1.235527
C       3.744541    3.857021    1.048193
C       2.850136    4.175874   -0.119544
H      -0.697492    1.866057   -0.623295
H      -0.349490    1.699080    1.091549
H       2.112493    1.479776    0.561406
H       1.758658    1.672079   -1.148098
H       0.776199    3.932734   -0.697903
H       0.440487    4.802329    1.464016
H       1.255671    3.448437    2.273020
H       2.841720    5.885579    1.514321
H       4.744878    4.271953    0.977598
H       3.704904    2.891706    1.547635
H       3.250276    4.589586   -1.037716
