19

C      -0.052703    1.506630    0.074700
C      -0.027717    0.005124    0.078817
N      -1.301640   -0.768406    0.172147
C      -0.386037   -1.919299    0.508158
C       0.725265   -0.929763    1.058841
N       1.916478   -1.069282    0.168633
C       0.912944   -0.797543   -0.927551
C       0.199437   -2.173159   -0.905482
O       1.065984   -3.261168   -1.046788
H       0.963011    1.916863    0.056240
H      -0.584039    1.880881   -0.806774
H      -0.556663    1.898048    0.965485
H      -1.769246   -0.463252    1.027242
H      -0.786262   -2.762996    1.066715
H       0.859905   -0.784439    2.131459
H       2.511167   -0.252350    0.295576
H       1.284583   -0.397211   -1.869960
H      -0.603385   -2.263182   -1.637454
H       1.869884   -2.994491   -0.571496
