14

N      -0.106996   -1.175845   -0.028218
C      -0.065783   -0.022570    0.009904
C      -0.007275    1.436054    0.035529
C       1.447220    1.979406    0.049792
C       1.431512    3.525184   -0.096109
C       2.768138    4.092302   -0.249346
N       3.825686    4.534588   -0.387826
C       2.141452    1.578563    1.276477
N       2.665958    1.279405    2.260755
H      -0.519638    1.821064   -0.852793
H      -0.551669    1.802946    0.912037
H       1.988130    1.553253   -0.801376
H       0.837069    3.790970   -0.976937
H       0.946009    3.977657    0.774986
