18

C      -0.029079    1.522705    0.057277
C       0.170920    0.043682   -0.030821
N      -0.702377   -0.919787    0.670763
C       0.776792   -0.941996    0.934466
C       1.364618   -1.782794   -0.204581
C       0.705566   -0.777683   -1.224429
O      -0.253699   -1.264976   -2.116927
C       1.296494   -0.725469    2.238051
C       1.751511   -0.545109    3.338256
H       0.843214    2.057613   -0.331726
H      -0.901548    1.833720   -0.528443
H      -0.181826    1.836506    1.095350
H      -1.141777   -0.431082    1.450533
H       2.455578   -1.765741   -0.235128
H       1.002480   -2.812025   -0.255943
H       1.452176   -0.237599   -1.811338
H      -0.965607   -1.613906   -1.562689
H       2.151952   -0.388696    4.309191
