18

O      -0.620638    0.637870    0.575908
C       0.104779    1.064854   -0.287192
C       1.264438    2.005232   -0.076826
C       1.249520    3.310739   -0.905942
C       0.158287    4.231269   -0.427223
C       1.425522    4.132750    0.375585
C       1.397977    2.862507    1.202313
C       0.870310    2.623499    2.562347
N       2.328209    2.611019    2.292664
H      -0.049968    0.779635   -1.354951
H       2.189663    1.444789   -0.271039
H       1.737751    3.437351   -1.863295
H       0.040255    5.140853   -1.006979
H      -0.771766    3.831768   -0.030092
H       2.082921    4.973181    0.556653
H       0.530787    3.463482    3.162486
H       0.360010    1.684428    2.744622
H       2.666531    1.651785    2.257096
