24

C      -0.031864    1.567752    0.005353
C       0.017794    0.037042   -0.007505
C       0.690455   -0.500623   -1.282089
C       0.763908   -2.033037   -1.290093
C       1.462399   -2.567211   -0.032906
C       0.798910   -2.054113    1.256524
C       1.514472   -2.572014    2.507703
C       0.724111   -0.517866    1.241126
H       0.978920    1.993037   -0.003982
H      -0.563010    1.956829   -0.870117
H      -0.540497    1.942949    0.900063
H      -1.017829   -0.336697    0.003224
H       0.153963   -0.140570   -2.168428
H       1.707950   -0.087334   -1.346926
H      -0.254053   -2.444194   -1.341232
H       1.283282   -2.382832   -2.189729
H       1.470086   -3.664009   -0.038625
H       2.515843   -2.250160   -0.039572
H      -0.233430   -2.436641    1.272565
H       2.551725   -2.217586    2.541285
H       1.017883   -2.229264    3.421981
H       1.537738   -3.666976    2.529248
H       1.746003   -0.110031    1.284344
H       0.214394   -0.161508    2.145649
