13

N      -0.109269    1.275096    0.057151
C       0.048969   -0.066148   -0.017302
O       1.083480   -0.675044   -0.083595
N      -1.222171   -0.747552   -0.009944
N      -2.389639   -0.099549    0.064625
C      -3.299442   -1.060763    0.044861
C      -2.617943   -2.297399   -0.044103
O      -3.173957   -3.515636   -0.089562
N      -1.315236   -2.085821   -0.077674
H       0.719573    1.841495    0.062632
H      -1.026299    1.684569    0.112713
H      -4.355775   -0.853358    0.092213
H      -2.459285   -4.163039   -0.148388
