21

O      -0.170678    1.453906    0.097196
C      -0.023217    0.058620   -0.111966
C      -1.386342   -0.585918    0.103582
C      -1.358296   -2.095085   -0.089885
O      -2.662178   -2.596455    0.127661
C      -2.755387   -3.992285   -0.027235
C      -4.211337   -4.399227    0.201633
C      -4.375377   -5.898555    0.293765
O      -5.126275   -6.554194   -0.380430
H       0.685051    1.870794   -0.038655
H       0.336084   -0.155947   -1.132163
H       0.711445   -0.373850    0.587575
H      -1.736036   -0.356027    1.115508
H      -2.106596   -0.144830   -0.593278
H      -1.017694   -2.351063   -1.108181
H      -0.648431   -2.565011    0.613128
H      -2.427355   -4.295972   -1.035449
H      -2.096534   -4.507258    0.694592
H      -4.527913   -3.966878    1.161166
H      -4.860958   -4.009219   -0.584997
H      -3.731197   -6.383284    1.065712
