21

C       0.006186    1.460006   -0.063289
C      -0.005342   -0.044788    0.050518
C      -0.871503   -0.753529    1.050311
C       0.638709   -0.774564    1.202342
C       1.448647   -2.015933    0.820410
C       2.218991   -1.781356   -0.480650
C       1.781486   -2.446455   -1.769506
C       1.454102   -1.005213   -1.520901
O       0.121533   -0.719952   -1.186199
H       0.953372    1.817872   -0.482621
H      -0.803955    1.803114   -0.715399
H      -0.123675    1.925401    0.918358
H      -1.454570   -0.155568    1.742995
H      -1.353196   -1.667507    0.718525
H       1.056314   -0.161713    1.995609
H       2.145484   -2.267157    1.624624
H       0.784410   -2.879272    0.713313
H       3.276322   -1.560591   -0.375512
H       2.533193   -2.680786   -2.515515
H       0.954646   -3.147329   -1.717335
H       1.951273   -0.235302   -2.108406
