14

N       0.026708   -1.150588    0.443326
C       0.010748   -0.022283    0.197107
C      -0.002510    1.421395   -0.123408
N      -0.784777    2.189683    0.855212
C       0.145254    2.981878    1.681968
C       1.472022    2.882692    0.981328
C       1.410310    2.017290   -0.034135
C       2.456023    1.644769   -0.915819
N       3.284066    1.333551   -1.663309
H      -0.420398    1.522784   -1.131465
H      -1.428931    2.796839    0.367946
H      -0.200711    4.016838    1.783322
H       0.221018    2.575760    2.701605
H       2.359748    3.418541    1.291996
