17

C       0.017011    1.561656    0.126585
O       1.284716    2.121784   -0.244040
C       2.297758    1.137519   -0.219012
O       2.215004    0.384586    0.987756
C       1.269127   -0.628123    0.647956
C       1.723556   -1.214938   -0.704603
C       0.657077   -0.393404   -1.406100
C       2.093464    0.097154   -1.335950
C       0.037749    0.048320   -0.076942
H      -0.196185    1.803226    1.177513
H      -0.747069    2.041534   -0.495332
H       3.249692    1.668392   -0.248979
H       1.086595   -1.265522    1.510471
H       2.161348   -2.176889   -0.931826
H       0.145366   -0.575915   -2.342721
H       2.684000    0.139983   -2.240924
H      -0.918904   -0.421144    0.159199
