19

C       0.053292    1.523594   -0.013197
C      -0.021867    0.003028    0.004268
O       0.541301   -0.433013   -1.224166
C       0.732073   -1.826829   -1.381921
C       1.269636   -2.541365   -0.155947
C       2.224022   -1.968456    0.865432
O       2.180045   -0.545366    0.947273
C       0.740385   -0.606998    1.182374
C       0.767314   -2.142564    1.210384
H       1.099771    1.840382   -0.013086
H      -0.428068    1.914211   -0.913290
H      -0.446861    1.946349    0.863537
H      -1.075119   -0.324500    0.085018
H      -0.219992   -2.312990   -1.661272
H       1.416112   -1.931554   -2.231225
H       1.383465   -3.615212   -0.289048
H       3.122218   -2.464292    1.214961
H       0.479618   -0.129297    2.131668
H       0.257706   -2.786391    1.914121
