21

C       0.071084    1.466785   -0.395518
C       0.084856   -0.016239   -0.099383
C       1.355701   -0.798934   -0.170910
C       0.682889   -0.586059    1.175768
C       1.249358    0.036749    2.477806
C       0.688044    1.381798    2.929902
C       0.690975   -1.198899    3.268465
C       0.099879   -1.728256    1.949582
O      -0.563985   -2.681990    1.645797
H       1.004659    1.947574   -0.088318
H      -0.047439    1.634787   -1.471585
H      -0.753379    1.975207    0.114163
H      -0.808561   -0.551277   -0.414578
H       1.338938   -1.807590   -0.570883
H       2.276855   -0.249067   -0.342143
H       2.342912    0.069281    2.481310
H      -0.407326    1.380533    2.906349
H       0.999792    1.598493    3.957377
H       1.034833    2.204252    2.297925
H       1.442407   -1.860962    3.707902
H      -0.055831   -0.965206    4.033748
