21

C      -0.467899    1.847807    0.279342
C      -0.064538    0.391952    0.048948
C       0.977320    0.116895   -1.082003
C       1.722230   -0.845959   -0.122693
O       3.126994   -0.874634   -0.112739
C       0.958393   -0.212083    1.069164
C      -1.314523   -0.460944   -0.046652
C      -2.034711   -0.721057   -1.298559
O      -1.226209   -1.733926   -0.691006
H       0.415545    2.480439    0.410649
H      -1.041673    2.240672   -0.567556
H      -1.086787    1.952613    1.178515
H       0.624192   -0.294883   -2.029288
H       1.571475    1.014895   -1.285738
H       1.402263   -1.875801   -0.290525
H       3.442716    0.023804    0.031561
H       1.552256    0.575854    1.547006
H       0.573775   -0.879816    1.844872
H      -1.902058   -0.482290    0.875045
H      -3.107336   -0.907574   -1.277906
H      -1.652314   -0.320493   -2.236012
