21

C      -0.195194    1.742908    0.160684
C       0.075099    0.245769    0.068543
C       1.209801   -0.215798   -0.900916
C       1.770689   -1.136844    0.216751
C       0.877779   -0.391953    1.245873
C      -1.224995   -0.558486   -0.180771
O      -2.142277   -0.444578    0.905173
C      -1.858522   -0.208494   -1.457154
C      -2.392340    0.110096   -2.486789
H       0.736568    2.290361    0.332724
H      -0.648434    2.126481   -0.759565
H      -0.865532    1.973576    0.997039
H       0.893718   -0.686920   -1.835616
H       1.887636    0.606449   -1.146414
H       1.483065   -2.183434    0.085293
H       2.849111   -1.104054    0.385628
H       1.433377    0.363421    1.808618
H       0.299739   -0.991434    1.952634
H      -0.962900   -1.623583   -0.207496
H      -2.592644    0.402205    0.819345
H      -2.866062    0.374582   -3.399964
