18

C      -0.054739    1.500394    0.037759
C      -0.065766    0.005462   -0.031522
C       0.793705   -0.961272   -0.929303
C       1.907622   -0.908354    0.106899
N       0.682114   -0.894936    1.019916
C      -0.024033   -1.876352    0.035165
C      -1.231765   -0.968205   -0.007894
C      -2.580236   -0.975822    0.534575
O      -2.323654   -1.016815   -0.892533
H       0.965109    1.896703    0.006747
H      -0.609442    1.920984   -0.807344
H      -0.525539    1.844686    0.964050
H       0.829405   -1.002813   -2.022442
H       2.533174   -1.797120    0.237892
H       2.518827   -0.002987    0.176718
H       0.062690   -2.954182    0.171229
H      -2.994776   -1.890837    0.953977
H      -3.031697   -0.052541    0.893692
