22

C      -0.030045    1.518592   -0.088526
C      -0.033545    0.063590   -0.020578
C      -0.032038   -1.139263    0.043119
C      -0.011349   -2.597595    0.096212
C      -1.397882   -3.274291    0.000300
C      -1.241565   -4.785905   -0.173571
N      -2.155251   -3.014297    1.223617
C      -2.960181   -1.798257    1.268083
C      -3.607569   -3.130200    1.126690
H       0.971133    1.904004   -0.312060
H      -0.704690    1.885049   -0.870477
H      -0.350348    1.964944    0.859604
H       0.613581   -2.977878   -0.721983
H       0.457855   -2.931531    1.030291
H      -1.919921   -2.863444   -0.883559
H      -0.692782   -5.019361   -1.091039
H      -0.700627   -5.213935    0.676381
H      -2.219621   -5.272387   -0.229370
H      -2.969911   -1.274716    2.219628
H      -2.952666   -1.151917    0.393962
H      -4.038278   -3.369378    0.154907
H      -4.102687   -3.603032    1.970120
