18

C      -0.061091    1.545653    0.113865
C       0.030435    0.020003    0.032967
C       0.619952   -0.467801   -1.296968
C       0.744650   -1.989623   -1.366091
C       1.535739   -2.626352   -2.526180
O       2.497572   -3.191458   -1.576901
C       1.845752   -2.626790   -0.508532
O       2.154658   -2.677130    0.639041
H       0.928575    2.006905    0.024007
H      -0.689055    1.950329   -0.687915
H      -0.490983    1.866087    1.067500
H       0.642346   -0.364823    0.856156
H      -0.968471   -0.416760    0.163811
H      -0.007473   -0.125831   -2.130592
H       1.609246   -0.016077   -1.449585
H      -0.224690   -2.466252   -1.189318
H       1.037229   -3.417672   -3.089194
H       2.031774   -1.926138   -3.202593
