18

C       0.018526    1.504224    0.019287
C       0.001445   -0.004738   -0.030794
C      -1.325654   -0.730662    0.343804
C      -0.483730   -1.550906    1.302998
C       0.799565   -2.047458    0.707822
N       0.703004   -0.649397    1.199140
C       0.939528   -2.077226   -0.782641
O       1.273895   -3.017929   -1.456312
C       0.641837   -0.652005   -1.255851
H       1.041631    1.881348   -0.079361
H      -0.583124    1.924641   -0.793878
H      -0.385407    1.865730    0.969399
H      -2.005798   -0.069374    0.885649
H      -1.879348   -1.244495   -0.447829
H      -0.812039   -1.952654    2.256997
H       1.393678   -2.732410    1.302089
H       0.019023   -0.643099   -2.154078
H       1.596942   -0.167382   -1.497399
