19

C       0.056645    1.519906   -0.036588
C      -0.151593    0.025547   -0.208912
O       0.918264   -0.487918   -0.985366
C       0.880038   -1.863526   -1.146250
C       0.085818   -2.480860   -2.344738
O       1.071123   -1.893917   -3.273258
C       1.887009   -2.439793   -2.165283
C       1.032503   -3.723265   -2.270610
O       1.032398   -4.596162   -1.177028
H       1.005491    1.718206    0.469808
H       0.077407    2.017516   -1.010023
H      -0.753457    1.951395    0.558912
H      -0.181762   -0.479630    0.771000
H      -1.113691   -0.175613   -0.706717
H       0.789990   -2.397580   -0.192473
H      -0.967829   -2.411349   -2.616854
H       2.967816   -2.312998   -2.219229
H       1.142996   -4.218866   -3.239690
H       0.418170   -5.313432   -1.361148
