16

N      -0.015533    1.338364    0.104986
C       0.002592   -0.022890    0.039749
N      -1.190039   -0.645054    0.033451
C      -1.145783   -1.972289    0.013064
C       0.038855   -2.707933    0.000524
C       0.058885   -4.205825   -0.058090
O       0.057158   -4.609351   -1.426222
C       1.203139   -1.940372   -0.000147
N       1.211544   -0.612425    0.019945
H       0.840685    1.818363   -0.113849
H      -0.886883    1.794893   -0.104129
H      -2.107630   -2.484317    0.008041
H       0.953616   -4.583051    0.461587
H      -0.819758   -4.607113    0.470939
H       0.070663   -5.572050   -1.448716
H       2.178426   -2.426076   -0.016069
