20

C      -0.003351    1.530586    0.070521
C       0.042090    0.012889   -0.004875
C       0.766984   -0.495217   -1.250585
N       0.962180   -1.932063   -1.143047
C       0.989219   -2.649075    0.016103
O       1.221213   -3.844576    0.041003
C       0.648306   -1.871341    1.297279
C       1.564993   -2.276472    2.442445
O       0.727187   -0.460438    1.143362
H       1.010130    1.941209    0.107909
H      -0.519006    1.948182   -0.799475
H      -0.532785    1.845330    0.972928
H      -0.985147   -0.391514   -0.009475
H       0.174616   -0.275681   -2.146531
H       1.728613    0.029595   -1.347330
H       1.222788   -2.458480   -1.964697
H      -0.391144   -2.152918    1.544515
H       2.591531   -1.961432    2.234564
H       1.236898   -1.802660    3.370704
H       1.546808   -3.361116    2.554955
