16

C      -0.001660    1.491651   -0.011509
C      -0.007121    0.004783   -0.051002
C      -0.130861   -1.014793   -1.126607
C       0.778181   -1.940428   -0.286997
C      -0.172495   -1.920660    0.853632
N       0.924030   -0.886555    0.777838
C      -1.146113   -1.026640    0.071942
C      -2.584375   -0.852636    0.021546
O      -3.380017   -1.468405    0.697273
H       0.974537    1.874214   -0.328428
H      -0.763603    1.900710   -0.682006
H      -0.199509    1.855181    1.001742
H      -0.371293   -0.934542   -2.177846
H       1.580099   -2.618616   -0.549583
H      -0.297836   -2.577218    1.704342
H      -2.918648   -0.077460   -0.707620
