18

O       0.062832    1.506338   -0.219212
C      -0.016177    0.102187   -0.002577
C       0.491187   -0.584471   -1.258319
C       0.258470    0.003736   -2.596969
N       1.613743   -0.006193   -2.008735
C       0.782421   -0.303144    1.221497
C       0.151120   -0.223428    2.565547
N       0.445957   -1.530505    1.954332
H      -0.075931    1.941987    0.627497
H      -1.066750   -0.202553    0.163018
H       0.533656   -1.667747   -1.161902
H       0.126147   -0.647064   -3.456643
H      -0.268808    0.951119   -2.644829
H       1.793549    0.922010   -1.629755
H       1.852317   -0.124179    1.135655
H       0.749721    0.020125    3.438321
H      -0.886988    0.098802    2.623863
H      -0.411198   -1.933694    1.580105
