19

C      -0.000971    1.532401   -0.017314
C      -0.108536    0.046583    0.127812
O       1.040931   -0.747298   -0.222498
C       0.488539   -0.914941    1.096991
C       1.405767   -0.732707    2.265667
C      -0.722501   -1.822316    0.999833
C      -1.973515   -1.055691    1.328603
O      -2.104952   -0.108450    2.349152
C      -1.349244   -0.813001   -0.017585
H       0.952365    1.894781    0.376456
H      -0.058630    1.820785   -1.072893
H      -0.821304    2.033605    0.507081
H       2.034746    0.151704    2.133668
H       0.834960   -0.633458    3.194906
H       2.066329   -1.600154    2.374901
H      -0.692738   -2.903458    0.924677
H      -2.881680   -1.651294    1.297170
H      -1.301405    0.419644    2.380225
H      -1.848875   -1.041566   -0.952212
