21

C       0.028652    1.362978   -0.023348
O       0.056161   -0.054097    0.006053
C       0.708575   -0.586160    1.104875
C       0.516909   -2.099939    1.099910
C       1.315242   -2.744085    2.232093
O       1.183297   -4.150964    2.093917
C       2.774878   -2.276562    2.174135
C       2.833786   -0.747069    2.118160
O       2.087234   -0.246983    1.023170
H       1.036163    1.783516   -0.107110
H      -0.559992    1.648388   -0.897606
H      -0.451783    1.769438    0.879644
H       0.304973   -0.146938    2.042631
H      -0.545254   -2.342046    1.194217
H       0.869938   -2.486605    0.138468
H       0.883951   -2.417075    3.195192
H       1.685033   -4.567828    2.801973
H       3.333332   -2.639405    3.046808
H       3.243200   -2.695560    1.276488
H       2.458175   -0.319067    3.064409
H       3.858879   -0.393900    1.979169
