18

C       0.107098    1.538640    0.142738
C       0.037561    0.011697   -0.026656
C      -1.405908   -0.537774    0.020434
C      -2.114124   -0.313824    1.368657
C      -3.440346   -1.041270    1.420302
O      -4.503019   -0.521161    1.638348
C       0.649600   -0.370473   -1.362217
O       1.564240   -1.137332   -1.512721
H       1.141543    1.890978    0.089533
H      -0.464151    2.048146   -0.641689
H      -0.299646    1.849462    1.108204
H       0.635855   -0.481241    0.747833
H      -1.998762   -0.077415   -0.780862
H      -1.378438   -1.614330   -0.191843
H      -1.484310   -0.717066    2.175209
H      -2.296793    0.743884    1.571529
H      -3.367293   -2.138283    1.229257
H       0.167225    0.127100   -2.238597
