14

N       0.067896   -3.744047   -0.044182
C       0.050666   -2.581491   -0.030529
C       0.030909   -1.219329   -0.014701
C       0.020253   -0.007627   -0.004295
C      -0.010288    1.400267    0.025371
C       0.279702    2.292597   -1.183854
C       1.117412    2.453631    0.030906
O       0.471083    3.244300    1.013171
C      -0.602078    2.275704    1.139681
H       0.743371    1.768689   -2.012728
H      -0.433230    3.067236   -1.451852
H       2.193595    2.338550    0.084228
H      -1.589287    2.713379    0.958572
H      -0.569574    1.793301    2.120575
