17

C      -0.072241    1.568091    0.096293
C       0.038604    0.059258   -0.067959
C      -1.060058   -0.648605    0.571137
N      -1.962765   -1.174574    1.065348
C       0.589948   -0.658469   -1.255712
C       1.781888    0.057760   -1.903007
O       1.614852    1.305778   -2.531401
C       2.410723    0.109647   -0.493962
N       1.296664   -0.724037    0.089710
H       0.597275    2.103328   -0.572938
H      -1.094964    1.877115   -0.136673
H       0.133095    1.848989    1.134088
H       0.080428   -1.524006   -1.668265
H       2.323961   -0.642084   -2.551321
H       1.202128    1.170311   -3.390782
H       3.352238   -0.432872   -0.403589
H       2.521688    1.102145   -0.053562
