15

C      -0.015032    1.399045    0.025988
O      -0.034125   -0.025443    0.044023
C      -1.234568   -0.623257    0.016260
N      -2.334330    0.122389   -0.026060
C      -3.496301   -0.536658   -0.051798
C      -3.564294   -1.922438   -0.035631
O      -4.715660   -2.648413   -0.060175
C      -2.338099   -2.595614    0.009499
N      -1.176977   -1.959897    0.035525
H       1.039807    1.675579    0.053730
H      -0.485305    1.790334   -0.881087
H      -0.538042    1.813508    0.893010
H      -4.402634    0.068915   -0.086569
H      -5.470858   -2.051040   -0.090502
H      -2.319993   -3.683212    0.024306
