23

C      -1.780712    0.160709   -0.580595
O      -0.405313    0.412173   -0.357193
C       0.496406   -0.535981   -0.921290
C       0.534282   -0.368304   -2.440307
O       0.835500    0.966495   -2.794468
C       1.891839   -0.444213   -0.264128
C       1.933581   -1.998678   -0.203461
C       2.470619   -2.660579    1.056074
C       0.394716   -2.012408   -0.446890
H      -2.067069    0.272778   -1.635258
H      -2.069386   -0.845842   -0.248430
H      -2.333932    0.896093    0.008646
H       1.313828   -1.007714   -2.868355
H      -0.424857   -0.694825   -2.876722
H       0.363013    1.516894   -2.156946
H       2.666286    0.079530   -0.827990
H       1.807398   -0.003773    0.733168
H       2.455047   -2.398208   -1.079515
H       1.962750   -2.275195    1.947503
H       2.323539   -3.746228    1.030495
H       3.543353   -2.472497    1.176525
H      -0.154458   -2.079543    0.497455
H      -0.010252   -2.748404   -1.147692
