14

C       0.038655    1.471869   -0.085780
O       0.013443    0.042641   -0.023346
C       0.580636   -0.625387   -1.015747
C       0.714383   -1.971311   -1.235063
N       1.403035   -2.131270   -2.447957
C       1.631371   -0.940280   -2.865530
O       1.156085    0.050947   -2.039318
C       0.265844   -3.037967   -0.430565
C      -0.120849   -3.943182    0.262812
H       1.067285    1.844814   -0.094878
H      -0.485951    1.833756   -0.975206
H      -0.473677    1.811138    0.813909
H       2.135811   -0.612432   -3.759507
H      -0.460736   -4.742820    0.872270
