19

C       0.123581    1.608050    0.077282
C       0.028380    0.085070    0.094051
O       0.820758   -0.484136    1.131219
C      -1.427069   -0.461996    0.170041
C      -2.261520    0.062725    1.340728
C      -2.152548   -0.214386   -1.153871
O      -1.608371   -0.158735   -2.227186
C      -1.293032   -1.997541    0.264575
O      -1.921004   -2.684590    1.022024
H       1.172507    1.903565   -0.008050
H      -0.423223    2.029967   -0.770552
H      -0.278455    2.046654    0.997550
H       0.459620   -0.303008   -0.833222
H       0.580414   -0.063693    1.963910
H      -2.493578    1.125044    1.227177
H      -3.198541   -0.493841    1.416205
H      -1.736910   -0.080164    2.289571
H      -3.256775   -0.115373   -1.060818
H      -0.565428   -2.425681   -0.455536
