21

C      -0.194068    1.503990   -0.232783
C      -0.102825    0.037498    0.211008
C      -1.421377   -0.687445    0.041359
C      -1.760584   -1.429108   -1.209321
O      -0.811188   -1.591477   -2.218203
C      -1.503130   -2.223449    0.079815
C      -0.259239   -3.080584    0.202073
C      -2.741504   -2.758681    0.705821
O      -3.798604   -2.171682    0.751542
H       0.760546    2.019265   -0.089918
H      -0.461810    1.585139   -1.292504
H      -0.956571    2.044197    0.338031
H       0.680589   -0.469923   -0.359551
H       0.202309   -0.004513    1.263616
H      -2.275767   -0.217066    0.523637
H      -2.797184   -1.416938   -1.542773
H      -0.687493   -0.741168   -2.653039
H       0.436431   -2.883684   -0.614308
H       0.261233   -2.913218    1.151093
H      -0.527189   -4.141906    0.154514
H      -2.639554   -3.779879    1.137984
