18

C      -0.936075    0.822785   -0.046023
C       0.527051    0.374569   -0.074773
C       1.029945   -0.148758    1.231477
C       0.393363   -0.284502    2.416939
O       1.295316   -0.820134    3.326321
C       2.424293   -0.966413    2.600138
O       3.498620   -1.466926    3.194427
C       3.381503   -1.818751    4.574686
N       2.349426   -0.596015    1.365564
H      -1.090832    1.626825    0.681066
H      -1.246309    1.194673   -1.026235
H      -1.599941   -0.005537    0.222803
H       0.669626   -0.401925   -0.837141
H       1.171399    1.206795   -0.385682
H      -0.593238   -0.083888    2.792755
H       2.619335   -2.590059    4.720676
H       4.360249   -2.202940    4.861128
H       3.129653   -0.945077    5.183286
