17

O       0.169077    1.379632    0.148453
C       0.090481   -0.000023    0.042650
C       1.071476   -0.658136    1.002872
O       1.394804   -1.971404    0.586399
C       0.257471   -2.717287    0.184048
C      -0.660606   -1.889607   -0.706294
C      -1.327167   -0.631844   -0.102241
O      -1.412109   -0.037462   -1.460369
C      -0.052777   -0.636452   -1.384190
H      -0.496715    1.719063   -0.467755
H       2.004988   -0.089243    1.013893
H       0.656344   -0.649507    2.024585
H       0.644476   -3.586588   -0.356108
H      -0.301602   -3.091068    1.059579
H      -1.325881   -2.471076   -1.346123
H      -2.203726   -0.544014    0.541678
H       0.584011   -0.549681   -2.264388
