16

O       0.011345    1.067550    0.496312
C      -0.224778   -0.265116    0.097114
C      -1.729883   -0.492271   -0.206295
N      -2.618607   -0.131977    0.896354
C      -2.676269   -1.133916    1.957455
C      -3.600695   -0.710445    3.012425
N      -4.310259   -0.376667    3.859829
C      -2.083805    0.310568   -1.390944
N      -2.285674    0.971991   -2.316445
H      -0.055217    1.634199   -0.281564
H       0.379786   -0.558732   -0.771699
H       0.067887   -0.898327    0.940329
H      -1.891152   -1.548605   -0.456386
H      -2.314828    0.762759    1.271269
H      -3.049109   -2.074141    1.532580
H      -1.708888   -1.363101    2.436325
