18

C      -0.156254    1.448643    0.062128
C       0.086527   -0.048781    0.011892
C       0.771171   -0.578413   -1.253130
C       1.384598   -1.903315   -0.769578
C       1.563498   -1.677473    0.767129
O       0.994570   -0.398490    1.059189
C       0.943830   -2.737318    1.566776
C       0.435874   -3.611307    2.217511
H       0.783196    1.992357   -0.077369
H      -0.855086    1.747947   -0.725166
H      -0.581289    1.737992    1.027038
H      -0.867004   -0.583348    0.161867
H       0.079871   -0.711898   -2.089177
H       1.551263    0.125230   -1.563578
H       0.706925   -2.740967   -0.947025
H       2.336003   -2.136312   -1.251580
H       2.624529   -1.611956    1.034667
H      -0.009115   -4.379275    2.800557
