13

C      -0.139632   -1.213545   -0.004412
C      -0.064046   -0.013810    0.018893
C       0.004055    1.415781    0.033004
C       0.488735    2.156286    1.259691
C       1.360990    2.145728    0.023938
C       2.591205    1.414552    0.001139
C       3.633543    0.816024   -0.029295
H      -0.197553   -2.273361   -0.022809
H      -0.767469    1.914149   -0.546716
H      -0.008338    3.083546    1.520373
H       0.818348    1.553961    2.096846
H       1.364333    3.060937   -0.560934
H       4.549354    0.279762   -0.054281
