15

N       0.143358    1.232778   -0.173427
C       0.074032    0.002624    0.047618
O       1.022753   -0.903959    0.477883
C       0.075653   -2.015820    0.393179
C      -1.040889   -1.036744   -0.020303
C      -2.370732   -0.833417    0.730065
C      -3.006887   -0.986333   -0.665559
O      -1.711875   -1.252461   -1.258864
H       1.084469    1.596347   -0.012876
H       0.359303   -2.722428   -0.390355
H      -0.032920   -2.517473    1.358136
H      -2.613512   -1.624253    1.441897
H      -2.483181    0.141244    1.204764
H      -3.693824   -1.827990   -0.802511
H      -3.456653   -0.076698   -1.076324
