17

O       0.062683    1.325790    0.266007
C       0.023234   -0.062016   -0.037433
C      -1.389669   -0.557405   -0.054828
C      -2.201216   -0.955294    1.180587
O      -3.586633   -0.672153    0.926188
C      -3.353401   -1.217445   -0.408576
C      -2.044745   -1.939350    0.071060
C      -2.465488   -0.119160   -1.050463
O      -2.917107    1.208850   -1.004828
H      -0.627495    1.750111   -0.258718
H       0.505192   -0.271369   -1.006928
H       0.616082   -0.570349    0.731928
H      -1.833509   -0.927085    2.197378
H      -4.244671   -1.634008   -0.871777
H      -1.666964   -2.948996    0.002291
H      -2.188804   -0.356523   -2.080945
H      -3.368458    1.289989   -0.151490
