15

O       0.291319    1.224449    0.013765
C       0.001945   -0.080587   -0.432204
C      -1.415417   -0.493895   -0.067062
C      -1.682455   -1.857852    0.441160
O      -1.579060   -0.767187    1.345125
C      -2.484814    0.245334   -0.684827
C      -3.353179    0.864982   -1.251794
C      -4.417185    1.603909   -1.882952
O      -4.407638    1.962430   -3.037702
H       0.179851    1.231131    0.971448
H       0.121523   -0.074801   -1.519630
H       0.693607   -0.824945   -0.010453
H      -2.678087   -2.280233    0.323865
H      -0.862798   -2.574867    0.463903
H      -5.271472    1.824983   -1.211733
