19

C      -0.299041    1.468460    0.021867
C      -0.026126   -0.030534   -0.014931
C       1.279467   -0.456212   -0.731826
O       1.876399   -0.907267    0.510403
C       0.655232   -0.656832    1.202976
C       0.752021   -0.325319    2.669777
C      -0.643206   -0.123745    3.245710
O      -1.121215   -1.365564    2.655487
C       0.196126   -1.670608    2.190766
H       0.569142    2.016971    0.402008
H      -0.522087    1.843702   -0.982858
H      -1.155969    1.704768    0.659531
H      -0.914377   -0.578559   -0.337712
H       1.179773   -1.277104   -1.451185
H       1.859791    0.356507   -1.183017
H       1.694756   -0.076035    3.138294
H      -0.674048   -0.185775    4.339942
H      -1.221714    0.745133    2.912614
H       0.558758   -2.690248    2.260686
