17

C       0.137024    1.654580   -0.529536
C       0.203170    0.127097   -0.505093
C      -1.032029   -0.517123    0.155952
C      -2.273166   -0.243480   -0.564217
C      -3.278183   -0.033048   -1.189129
C      -0.856292   -2.044575    0.311785
O       0.110230   -2.633630   -0.111656
C      -1.917254   -2.726129    1.029433
C      -2.780337   -3.284388    1.655225
H       1.030152    2.069984   -1.005192
H      -0.737360    2.004830   -1.085773
H       0.077003    2.067923    0.483686
H       0.300242   -0.269661   -1.519989
H       1.088410   -0.210634    0.042166
H      -1.139082   -0.124149    1.179350
H      -4.172072    0.157129   -1.730152
H      -3.542276   -3.787056    2.200162
