18

O      -0.712817    0.765528   -0.624511
C       0.111446    0.915617    0.242350
C       1.238527    1.913404    0.215620
C       1.331199    3.082561   -0.799452
C       0.024871    3.832424   -0.470003
N       0.330825    4.181278    0.957034
C       1.529794    5.081125    0.724375
C       2.267612    3.833766    0.254755
C       1.367868    3.049244    1.248071
H       0.099678    0.276495    1.157153
H       2.177410    1.343311    0.265711
H       1.620782    2.920842   -1.835529
H      -0.131935    4.742720   -1.052629
H      -0.861651    3.205295   -0.551026
H       1.348643    5.921971    0.048087
H       1.911704    5.452228    1.679844
H       3.347827    3.709973    0.169388
H       1.562163    2.907807    2.309472
