18

N      -0.133628    1.350547   -0.076527
C      -0.034616   -0.041670   -0.054285
C      -1.183621   -0.839030   -0.132778
C      -1.102336   -2.227799   -0.048955
C      -2.365893   -3.062845   -0.108372
O      -3.387719   -2.502699   -0.919453
C       0.143556   -2.838720    0.107240
C       1.289548   -2.051816    0.188891
C       1.209809   -0.667343    0.108556
H       0.697752    1.831702   -0.386903
H      -0.961096    1.709704   -0.529755
H      -2.157330   -0.376183   -0.261645
H      -2.114014   -4.086002   -0.427685
H      -2.810225   -3.144443    0.891214
H      -3.015592   -2.372628   -1.798333
H       0.216002   -3.920472    0.159436
H       2.260797   -2.522235    0.306234
H       2.109695   -0.062372    0.170969
