20

C      -1.006232    1.085018   -0.304470
C      -0.013041   -0.068076   -0.367785
C       1.009619   -0.170050   -1.545742
C       2.184464   -0.435699   -0.539652
C       2.560962   -1.920286   -0.435308
C       3.423266    0.448856   -0.659416
C       1.199872   -0.018844    0.575914
O       1.349693    0.342188    1.709218
H      -0.503129    2.046128   -0.453550
H      -1.779014    0.985261   -1.073205
H      -1.497571    1.115168    0.672635
H      -0.535710   -1.023156   -0.229092
H       0.823387   -0.957236   -2.279004
H       1.123728    0.782557   -2.070728
H       3.104606   -2.236443   -1.332590
H       3.202923   -2.097911    0.433271
H       1.677511   -2.559655   -0.336950
H       3.154627    1.506700   -0.741041
H       4.062363    0.335070    0.221891
H       4.010624    0.178648   -1.544092
