21

C       0.035784    1.550544    0.000141
C       0.028703    0.018367    0.017010
C      -1.417927   -0.506943   -0.020298
C       0.795455   -0.588486   -1.152781
O       2.229058   -0.540459   -0.997258
C       1.534858   -1.773947   -0.706232
C       1.295212   -1.974394    0.774891
C       0.792676   -0.583936    1.252115
O       1.868696    0.225004    1.689550
H       1.052062    1.946618   -0.024496
H      -0.503086    1.925970   -0.877021
H      -0.453830    1.951886    0.893109
H      -1.924213   -0.201656   -0.942707
H      -1.461334   -1.599485    0.034614
H      -1.991924   -0.104651    0.820579
H       0.443295   -0.457846   -2.174069
H       1.782142   -2.602361   -1.364610
H       0.542561   -2.757997    0.920955
H       2.192627   -2.264645    1.328196
H       0.121138   -0.668641    2.111049
H       2.478613    0.269816    0.940676
