22

C      -0.016814    1.560956    0.106455
C      -0.032331    0.035486   -0.037916
N      -1.369264   -0.531484   -0.039270
C      -2.067906   -0.881947    1.096611
C      -3.328873   -1.296818    0.738705
C      -4.406495   -1.781690    1.661190
C      -3.394863   -1.184447   -0.681517
C      -2.184385   -0.710726   -1.138744
C      -1.734390   -0.429669   -2.535407
H       1.013022    1.932340    0.119828
H      -0.543286    2.039863   -0.724117
H      -0.506009    1.865211    1.036278
H       0.471798   -0.261509   -0.962432
H       0.524357   -0.424337    0.785182
H      -1.602019   -0.812332    2.068108
H      -5.311511   -1.166323    1.589967
H      -4.705232   -2.812509    1.435087
H      -4.074422   -1.757751    2.703633
H      -4.238710   -1.438501   -1.307357
H      -1.462498    0.621729   -2.694429
H      -0.866566   -1.034557   -2.828823
H      -2.544636   -0.665391   -3.229305
