17

C      -0.002113    1.529521    0.025147
C      -0.001263    0.034131    0.087685
C       1.157816   -0.850705   -0.302315
C       0.562918   -0.967058    1.086647
O       1.286826   -0.735369    2.243527
C      -0.750294   -1.699689    1.005740
C      -1.885162   -0.780079    1.253812
N      -1.253777   -0.751385   -0.080018
H       0.961142    1.927299    0.357397
H      -0.180850    1.877606   -0.998178
H      -0.780589    1.954711    0.667180
H       1.021060   -1.635165   -1.042376
H       2.119070   -0.345127   -0.333103
H       2.010370   -1.370180    2.285428
H      -0.882267   -2.773306    0.906529
H      -2.885414   -1.202581    1.239467
H      -1.750713    0.065321    1.923990
