17

C      -0.366493    1.094135   -0.171482
C       1.099699    1.051817    0.220150
C       0.341945   -0.215611    0.004617
O       0.089263   -0.967033    1.168100
C      -0.909067   -1.870440    1.087451
N      -1.609985   -2.087114   -0.017801
N      -2.474929   -3.068870    0.342999
C      -2.329393   -3.457542    1.629984
C      -1.310399   -2.698929    2.161944
H      -1.074908    1.374123    0.599442
H      -0.637997    1.400649   -1.175306
H       1.850522    1.333047   -0.509474
H       1.344550    1.302400    1.246027
H       0.540507   -0.826057   -0.870634
H      -3.130850   -3.407479   -0.337961
H      -2.947730   -4.227818    2.063637
H      -0.908263   -2.727758    3.160058
