16

C      -0.600170    1.360774    0.370032
N      -0.901733   -0.055308    0.412556
C      -0.788997   -0.852545   -0.674971
O      -0.387345   -0.494756   -1.768734
C      -1.152424   -2.331536   -0.429728
C      -2.355603   -2.577110    0.471795
N      -3.282413   -3.439797   -0.017204
O      -2.477515   -2.051540    1.569757
H       0.119662    1.631203    1.150061
H      -0.169966    1.581435   -0.607527
H      -1.502644    1.968330    0.506384
H      -1.339173   -0.465944    1.230017
H      -1.261844   -2.791319   -1.412797
H      -0.290993   -2.800678    0.061187
H      -3.209136   -3.849328   -0.931190
H      -4.097141   -3.634644    0.542122
