21

O      -0.746600   -0.464646    1.694346
C      -0.491916   -0.138921    0.320845
C      -1.546873   -0.792197   -0.525218
C      -1.214691   -1.274076   -1.916728
C      -1.607144   -2.273444   -0.853473
C      -0.709790   -3.387496   -0.398256
C       0.527416   -3.277400    0.488689
C      -0.737605   -3.886311    1.031086
O      -1.488856   -3.244422    2.009997
H      -0.093896   -0.026426    2.249387
H      -0.535074    0.951153    0.185748
H       0.509498   -0.470556    0.019038
H      -2.524162   -0.333996   -0.399805
H      -1.901229   -1.058239   -2.727849
H      -0.167047   -1.252056   -2.201810
H      -2.635768   -2.618987   -0.939160
H      -0.636660   -4.172048   -1.149847
H       1.371351   -3.917999    0.253832
H       0.805241   -2.316415    0.900119
H      -0.764796   -4.960792    1.186557
H      -1.290225   -2.295018    1.986377
