17

C      -0.032455    1.376985   -0.275895
C       1.491364    1.508510    0.002175
C       1.389974    0.242272    0.898283
C       0.076371   -0.106765    0.155349
O       0.249604   -1.013995   -0.931249
C       1.202682   -0.798911   -1.877983
N       2.070041    0.097534   -2.062406
C       2.333153    1.268550   -1.249483
H      -0.636939    1.945112    0.435912
H      -0.392051    1.572816   -1.289194
H       1.824030    2.429712    0.489415
H       2.197242   -0.492741    0.848199
H       1.191153    0.486790    1.944953
H      -0.743035   -0.534406    0.734731
H       1.137498   -1.619945   -2.592469
H       2.245280    2.141150   -1.912451
H       3.393994    1.224781   -0.964213
