16

C      -0.026680    1.541800    0.097872
C       1.292528    0.821358   -0.017090
C       0.002014    0.038327   -0.008473
C       0.063859   -0.673301   -1.403134
O       1.474741   -0.950273   -1.500365
C       1.881526    0.429598   -1.415274
C       1.031570    1.054275   -2.519260
C      -0.108490    0.362507   -2.511660
H      -0.268630    1.951309    1.074682
H      -0.389755    2.131012   -0.735616
H       1.973159    0.801288    0.824972
H      -0.286262   -0.569634    0.840062
H      -0.514922   -1.592686   -1.473533
H       2.963546    0.517932   -1.496770
H       1.287999    1.935643   -3.090809
H      -1.014204    0.538712   -3.075457
