22

C       0.032534    1.518174    0.508208
C      -0.016866    0.043346    0.927582
C      -1.322503   -0.605646    0.533089
O      -1.519783   -0.893217   -0.859750
C      -1.488587   -1.990725    0.060351
C      -0.381393   -3.012560   -0.097314
C      -0.283394   -3.886818    1.161046
C      -0.625080   -3.855255   -1.358162
H       0.980447    1.980074    0.799444
H      -0.074790    1.610852   -0.576555
H      -0.776604    2.090601    0.974928
H       0.821143   -0.495012    0.475904
H       0.097628   -0.040354    2.016433
H      -2.197764   -0.145098    1.000817
H      -2.472200   -2.443441    0.223201
H       0.565275   -2.477400   -0.228596
H      -1.221644   -4.425234    1.340161
H       0.509693   -4.633635    1.055314
H      -0.067614   -3.287681    2.051532
H       0.187644   -4.571990   -1.513976
H      -1.559403   -4.423606   -1.276405
H      -0.695444   -3.216031   -2.242718
