16

C       0.121251    1.318455   -0.294098
N      -0.135839   -0.108479   -0.219895
C       0.603683   -1.021688   -0.902929
O       1.534708   -0.739633   -1.634488
C       0.215470   -2.485917   -0.645927
O       0.237388   -3.248086   -1.832668
C       1.456331   -3.586271   -2.322502
N       1.525859   -4.203757   -3.418821
H       1.008827    1.456438   -0.912128
H      -0.718535    1.850526   -0.753836
H       0.303179    1.738475    0.700643
H      -0.929788   -0.427135    0.310480
H       0.912765   -2.890567    0.102445
H      -0.797706   -2.579890   -0.245750
H       2.287202   -3.285191   -1.676625
H       2.498810   -4.407116   -3.637723
