21

C       0.038953    1.493492   -0.086149
C      -0.058113   -0.003882   -0.022236
O       0.418908   -0.676001   -1.203146
C      -0.475585   -1.786099   -0.876413
C       0.339003   -2.813523   -0.095239
C       1.162316   -2.019424    0.951595
C       0.384158   -0.746948    1.316389
C      -1.114443   -1.095943    1.560357
C      -1.338431   -0.865792    0.056357
H       1.089123    1.805323   -0.120105
H      -0.461363    1.876939   -0.980341
H      -0.420133    1.949328    0.797062
H      -0.962161   -2.183772   -1.770549
H      -0.329792   -3.540849    0.379124
H       0.994716   -3.371931   -0.770276
H       1.355841   -2.622497    1.844864
H       2.130885   -1.743928    0.525483
H       0.894364   -0.144034    2.071168
H      -1.339668   -2.076957    1.989816
H      -1.631906   -0.331610    2.147164
H      -2.306552   -0.557451   -0.341379
