20

O      -0.024910    1.446758    0.222175
C       0.055862    0.042433    0.032923
C      -1.366175   -0.507624    0.032040
C      -1.434617   -2.029110   -0.094516
C      -2.859016   -2.610308   -0.068882
C      -2.663178   -3.985692   -0.714938
O      -1.549454   -3.864631   -1.602498
C      -0.921005   -2.599653   -1.426416
H       0.866981    1.805485    0.203258
H       0.557466   -0.200662   -0.917680
H       0.637350   -0.436376    0.838611
H      -1.852517   -0.188009    0.961243
H      -1.923357   -0.040095   -0.789700
H      -0.858383   -2.486239    0.721946
H      -3.283908   -2.669712    0.936429
H      -3.523995   -1.987772   -0.679212
H      -2.440800   -4.753038    0.041216
H      -3.539244   -4.319566   -1.282930
H      -1.185584   -1.924700   -2.257889
H       0.164450   -2.747326   -1.447403
