14

O      -0.093198    1.454836   -0.060137
C      -0.013177    0.076485   -0.022584
C      -1.311269   -0.774363   -0.055962
C      -0.390879   -1.935202    0.441109
C       0.646410   -1.995576   -0.665122
C       0.884878   -0.707012   -0.972212
C       0.315610   -0.790599    1.286361
O       0.790731   -0.634018    2.360049
H       0.779310    1.821792    0.118496
H      -2.051340   -0.453070    0.683287
H      -1.752338   -0.914771   -1.045443
H      -0.778246   -2.848936    0.881324
H       1.157139   -2.885712   -1.004136
H       1.626897   -0.275015   -1.629666
