23

C      -0.519436    0.946525   -0.036252
O       0.518051   -0.005287    0.106955
C       0.924891   -0.543340   -1.111970
C       1.637981   -1.854919   -1.055502
C       0.242250   -1.783365   -1.657573
C      -0.912174   -2.391161   -0.924275
C      -2.275646   -2.505674   -1.571445
C      -1.476053   -3.752517   -1.273993
C      -0.915348   -4.604448   -2.391708
H      -0.201854    1.794613   -0.662077
H      -1.419872    0.502738   -0.482191
H      -0.756453    1.316575    0.964113
H       1.266866    0.202919   -1.831812
H       2.492757   -2.016659   -1.702762
H       1.718966   -2.308135   -0.073070
H       0.188637   -1.840793   -2.740998
H      -0.911700   -2.149149    0.134200
H      -3.159311   -2.288245   -0.980774
H      -2.357413   -2.208101   -2.613263
H      -1.821140   -4.329830   -0.419341
H      -0.610511   -4.000257   -3.251273
H      -0.038575   -5.172011   -2.060318
H      -1.662816   -5.322995   -2.746200
