22

C       0.321591    1.435575   -0.313896
C       0.029471   -0.043848   -0.045527
O       0.497898   -0.886508   -1.096905
C      -0.278243   -0.895649   -2.255430
C       0.096254   -0.022103   -3.427152
C       0.345275   -1.517360   -3.461913
C       0.697518   -0.518313    1.235002
C       0.968904   -1.952614    1.477426
N       2.080319   -1.016283    1.207327
H       1.398265    1.597729   -0.422702
H      -0.179076    1.779698   -1.221789
H      -0.034110    2.046090    0.522323
H      -1.060027   -0.179676    0.059798
H      -1.338074   -1.076224   -2.072963
H      -0.694391    0.394204   -4.042190
H       0.964347    0.614924   -3.305243
H       1.372375   -1.847786   -3.356192
H      -0.269744   -2.141181   -4.100311
H       0.477831    0.119672    2.089350
H       0.936527   -2.347277    2.489113
H       0.694208   -2.651683    0.694114
H       2.348905   -1.128720    0.231493
