15

C       0.028266    1.467149    0.002863
C       1.275113    0.667002    0.028872
C       1.984470    0.375192    1.376614
C       0.895692   -0.372782    2.097989
C      -0.157687   -0.537963    1.259779
O      -1.162942   -1.198421    1.812725
N      -0.763376   -1.510486    3.139819
C       0.449352   -1.008940    3.278406
N      -0.066967   -0.021469   -0.041782
H      -0.298316    1.951801    0.918738
H      -0.275999    1.956538   -0.916725
H       1.863202    0.598341   -0.879662
H       2.880940   -0.232015    1.207676
H       2.308881    1.295265    1.875235
H       0.940302   -1.141449    4.232925
