19

O       0.209147   -0.039024    0.885433
C       0.140662    0.968186    0.219350
C       1.257324    1.920068    0.068044
C       1.474835    2.781265   -1.193123
C       0.499803    2.798531   -2.371718
C      -0.457543    3.991766   -2.237852
C      -1.119794    3.990589   -0.865532
O      -0.187424    4.057341    0.214680
C       1.052157    3.447973    0.069259
H      -0.799949    1.221208   -0.314454
H       2.157771    1.578877    0.568564
H       2.520866    2.887804   -1.461174
H       1.068683    2.873609   -3.302249
H      -0.072094    1.867885   -2.440526
H       0.095796    4.929155   -2.370491
H      -1.235130    3.957840   -3.008006
H      -1.766960    4.863002   -0.737153
H      -1.751378    3.094679   -0.756620
H       1.791013    3.993526    0.647793
