19

C      -0.056191    1.412280    0.015567
O      -0.025951    0.006047    0.015812
C       0.624990   -0.527835   -1.116944
C       0.609449   -2.019317   -1.031872
C       0.061049   -2.789657   -0.030384
N       0.285216   -4.080113   -0.377713
N       0.946496   -4.206899   -1.544678
C       1.149878   -2.955300   -1.953390
C       1.867678   -2.677363   -3.236054
H       0.957726    1.843390    0.017188
H      -0.594967    1.809852   -0.859387
H      -0.575498    1.728779    0.923305
H       0.125177   -0.183251   -2.041184
H       1.662605   -0.149776   -1.173478
H      -0.454893   -2.511089    0.873199
H       0.019669   -4.909243    0.124482
H       1.238660   -2.116539   -3.937593
H       2.774149   -2.082876   -3.071013
H       2.156111   -3.617489   -3.710611
