18

C      -0.048432    1.550299    0.017580
C       0.069916    0.026490    0.058128
C       0.676606   -0.540196   -1.234393
C       1.023028   -2.022917   -1.028510
O       1.822010   -2.216731    0.128690
C       1.592050   -1.374814    1.172862
N       0.839926   -0.364237    1.240467
C      -0.242451   -2.870180   -0.961501
O      -0.627707   -3.455860    0.012235
H       0.939193    2.009277   -0.096457
H      -0.679266    1.873883   -0.816829
H      -0.483221    1.916113    0.950872
H      -0.940806   -0.388832    0.184687
H      -0.007375   -0.427141   -2.082598
H       1.596590    0.000030   -1.482482
H       1.614245   -2.394250   -1.875633
H       2.197183   -1.684383    2.022110
H      -0.806319   -2.887373   -1.923993
