15

O       0.326103    1.569590   -0.062852
C       0.079106    0.170227    0.017838
C       0.571991   -0.550456   -1.250792
C      -0.267474   -0.182655   -2.469607
O      -1.426468    0.157616   -2.388417
C       0.404010   -0.308733   -3.751001
C       0.980323   -0.424073   -4.801617
C       0.667641   -0.421459    1.220791
C       1.197398   -0.886948    2.194447
H       1.254881    1.714285    0.149978
H      -1.011242    0.076597    0.049032
H       1.629047   -0.332138   -1.432848
H       0.495865   -1.638604   -1.122930
H       1.471962   -0.516931   -5.739713
H       1.641425   -1.298233    3.067426
