21

C      -0.309662    1.318002   -0.341174
O      -0.291711   -0.075001   -0.133949
C       0.424944   -0.759724   -1.113195
C       0.385536   -2.264161   -0.859732
O      -0.311255   -2.759707   -0.011066
C       1.313862   -3.085245   -1.753275
C       0.906885   -4.536303   -1.861123
C       0.029806   -4.997746   -2.996486
C       1.482056   -5.408517   -2.945744
H       0.704629    1.748003   -0.327574
H      -0.781311    1.582941   -1.300920
H      -0.891075    1.757893    0.472084
H       0.012331   -0.582388   -2.125525
H       1.481692   -0.434662   -1.158204
H       1.385830   -2.618788   -2.744561
H       2.320539   -2.997356   -1.315088
H       0.724093   -5.004356   -0.900185
H      -0.727941   -5.745055   -2.790410
H      -0.262221   -4.267416   -3.744687
H       2.161459   -4.953615   -3.659774
H       1.719830   -6.439008   -2.706020
