20

O       0.120042    1.330091    0.245542
C       0.023956   -0.033875   -0.117825
C      -1.415857   -0.567653   -0.039625
C      -1.516787   -2.085086   -0.013518
N      -1.176424   -2.638471    1.324753
C      -2.596475   -2.486852    0.921090
C      -3.225722   -1.233532    1.498900
C      -2.158193   -0.136078    1.264649
O      -1.265992   -0.018282    2.370471
H      -0.090015    1.348533    1.189196
H       0.397013   -0.113915   -1.144788
H       0.671764   -0.660687    0.512301
H      -1.989787   -0.193803   -0.897342
H      -1.267851   -2.674242   -0.890399
H      -0.890962   -3.609607    1.238459
H      -3.186106   -3.384301    0.765127
H      -4.146717   -1.003720    0.950112
H      -3.471971   -1.311111    2.561580
H      -2.610416    0.850359    1.150416
H      -0.880913   -0.904072    2.472584
