19

C       0.234277    1.469309    0.111597
C       0.163646   -0.035696    0.041189
C      -0.909385   -0.812593    0.765171
C       0.533173   -0.950896    1.188006
C       1.287190   -2.117886    0.554228
O       0.957616   -2.086834   -0.819035
C       0.705046   -0.731788   -1.200613
C       2.781108   -1.962995    0.817056
O       3.587458   -1.611510   -0.001897
H       1.257517    1.826315   -0.050847
H      -0.404563    1.931833   -0.649664
H      -0.099735    1.836360    1.086759
H      -1.564137   -0.256832    1.428071
H      -1.376082   -1.652786    0.260088
H       0.858468   -0.565461    2.147770
H       0.974006   -3.095212    0.949725
H      -0.001682   -0.761249   -2.036995
H       1.630589   -0.243861   -1.535217
H       3.077705   -2.190307    1.869850
