16

C      -0.021892    1.477119    0.071455
C       1.304403    0.760571    0.032589
C       2.026028    0.429688    1.356857
C       1.022542   -0.485135    1.988948
C      -0.066256   -0.766720    1.228759
C      -0.828016   -1.615251    2.068735
N      -0.234408   -1.816260    3.227940
O       0.962574   -1.070687    3.182644
C      -0.009840   -0.032453   -0.060109
H      -0.369352    1.898332    1.009681
H      -0.286399    2.056835   -0.807004
H       1.918088    0.894703   -0.849796
H       2.986253   -0.069806    1.180874
H       2.232210    1.320658    1.960256
H      -1.777802   -2.101512    1.894321
H      -0.330705   -0.492393   -0.987056
