16

C       0.050533    1.264821   -0.296339
O      -0.072012   -0.141305   -0.142768
C      -1.364759   -0.557533    0.187723
O      -2.292801   -0.395643   -0.876072
C      -2.564956   -1.644560   -1.492853
C      -1.985243   -2.668187   -0.538348
C      -1.326221   -2.042299    0.437800
C      -2.134653   -4.066437   -0.724878
N      -2.279925   -5.200632   -0.908147
H       1.103071    1.470491   -0.499268
H      -0.560407    1.629417   -1.130005
H      -0.248616    1.792991    0.621169
H      -1.740535    0.039473    1.034169
H      -3.648918   -1.752699   -1.615732
H      -2.100162   -1.718516   -2.486314
H      -0.783740   -2.493800    1.255788
