20

C       0.833827    1.364618   -0.200581
C       0.038229    0.089672    0.046817
O       0.184885   -0.819444   -1.062203
C       0.980229   -1.885050   -0.743354
N       1.307613   -2.795359   -1.554531
C       1.412873   -1.814534    0.707618
C       2.915697   -1.521767    0.841701
C       0.474563   -0.738326    1.290640
O       1.118772    0.009349    2.302465
H       1.906075    1.165973   -0.263209
H       0.508647    1.823620   -1.138068
H       0.672147    2.080087    0.610231
H      -1.029010    0.334001    0.096393
H       0.912098   -2.611658   -2.478461
H       1.216806   -2.784024    1.171876
H       3.201264   -0.591041    0.344844
H       3.193279   -1.440044    1.894334
H       3.477126   -2.337236    0.380106
H      -0.416664   -1.235797    1.697403
H       0.453823    0.512792    2.781485
