17

O       0.002293    1.378661   -0.090973
C      -0.063078   -0.030171    0.007876
C       0.414011   -0.602036    1.413793
C      -0.901578   -1.194061    2.017711
C      -1.568025   -1.897871    0.815672
C      -2.947624   -1.199499    0.880008
O      -2.790410   -0.539984   -0.460561
C      -1.487397   -0.488282    0.170530
C      -2.011458   -0.201666    1.606100
H       0.927202    1.631356   -0.170982
H       0.457727   -0.511310   -0.830297
H       1.188729   -1.367261    1.302557
H       0.819210    0.218905    2.013088
H      -0.839213   -1.639367    3.010698
H      -1.316320   -2.834056    0.317697
H      -3.945208   -1.569409    1.110811
H      -2.256951    0.784929    1.993993
