17

C       0.002094    1.538895    0.079199
C       0.003200    0.010134    0.004881
O       0.667003   -0.463468    1.165196
C      -1.397272   -0.480903   -0.018053
N      -2.489819   -0.856613   -0.027709
C       0.740556   -0.515198   -1.274568
N       2.081734    0.074047   -1.311666
C       0.741191   -1.985814   -1.265928
C       0.793131   -3.186715   -1.208711
H       1.030884    1.897116    0.071507
H      -0.528221    1.962673   -0.776892
H      -0.495481    1.855643    0.997767
H       0.657705   -1.430078    1.134109
H       0.185888   -0.158888   -2.150353
H       2.590556   -0.237994   -0.488377
H       2.583154   -0.282724   -2.118981
H       0.820750   -4.248880   -1.188634
