20

C       0.020244    1.681571   -0.071614
C       0.037499    0.155866    0.050362
C       0.594989   -0.530030   -1.206323
C       0.631459   -2.022267   -1.109474
O       0.657684   -2.806134   -2.303864
C      -0.357687   -3.081514   -1.336140
C       0.265126   -3.938330   -0.176532
N       1.686492   -4.191500   -0.512791
C       1.275586   -2.883890    0.052926
H       1.029280    2.077062   -0.231821
H      -0.597933    2.003853   -0.916725
H      -0.381310    2.148536    0.832832
H       0.636126   -0.132157    0.923671
H      -0.977775   -0.213539    0.240877
H      -0.009246   -0.263341   -2.081323
H       1.611077   -0.160713   -1.405559
H      -1.392193   -3.057884   -1.658357
H      -0.281773   -4.547981    0.530088
H       2.071980   -4.729293    0.265013
H       1.685975   -2.502905    0.978789
