14

O       0.047822   -0.021657    0.210649
C       0.003761    1.171617    0.042900
C      -1.313318    1.947114   -0.038916
N      -1.287158    2.967942   -1.077315
C      -0.187827    3.618453   -1.555263
O      -0.224671    4.422757   -2.465287
C       1.114780    3.265680   -0.875196
O       1.116391    3.302629    0.547697
C       1.231813    2.019914   -0.075136
H      -2.105863    1.226268   -0.248872
H      -1.502417    2.383494    0.953233
H      -2.160195    3.245617   -1.500536
H       1.994297    3.678780   -1.361339
H       2.189111    1.514668    0.023150
