23

C       0.078810    1.589350    0.180242
C      -0.006016    0.071504    0.000787
C       0.633791   -0.468646   -1.314430
N       0.024062    0.074890   -2.542936
C       2.052234   -0.052562   -1.311556
N       3.155257    0.289979   -1.268872
C       0.585805   -2.036269   -1.361178
C      -0.852715   -2.568859   -1.449050
C       1.426992   -2.603266   -2.512982
H       1.117503    1.931341    0.209513
H      -0.430914    2.120037   -0.630571
H      -0.400017    1.887820    1.117090
H       0.471308   -0.427765    0.852088
H      -1.056980   -0.236445    0.004517
H      -0.986933    0.011483   -2.466811
H       0.247783    1.059599   -2.642572
H       1.019012   -2.379292   -0.413093
H      -1.330264   -2.266300   -2.386933
H      -0.836972   -3.662651   -1.435748
H      -1.482954   -2.244391   -0.616852
H       2.479632   -2.323897   -2.421008
H       1.368158   -3.695957   -2.518714
H       1.059840   -2.231011   -3.473078
