19

C      -0.039495    1.547287    0.168629
C      -0.037295    0.050600    0.051869
C      -0.856804   -0.853917    0.929091
C       0.647905   -0.976334    0.945264
C       1.236169   -1.693477   -0.286205
C       0.247999   -2.166393   -1.278277
C       0.509859   -0.669062   -1.222569
C       1.161414   -0.012425   -2.356753
O       1.723716   -0.595512   -3.261949
H       0.933744    1.977703   -0.094697
H      -0.789999    2.000430   -0.490951
H      -0.270771    1.851826    1.194013
H      -1.258531   -0.359224    1.808899
H      -1.507811   -1.631437    0.545905
H       1.228861   -0.794854    1.840271
H       2.289501   -1.926686   -0.373737
H       0.677460   -2.606563   -2.172361
H      -0.716414   -2.567919   -0.992501
H       1.123702    1.098863   -2.341605
