19

C       0.045356    1.428652   -0.031562
C       1.404845    2.150616    0.067416
C       2.319790    1.667327    1.208187
O       2.794023    0.352411    0.912275
C       1.895805   -0.571866    1.527602
C       1.368593    0.202391    2.726486
C       1.604533    1.495250    2.532169
C       0.762582   -0.956900    0.591112
C       0.013145   -0.084109   -0.087470
H      -0.570796    1.736308    0.827351
H      -0.474274    1.817121   -0.914445
H       1.966861    2.022103   -0.864256
H       1.214297    3.225820    0.181835
H       3.194739    2.325800    1.273859
H       2.474995   -1.459642    1.803773
H       0.823007   -0.258225    3.539523
H       1.299040    2.320775    3.162415
H       0.561012   -2.019898    0.480909
H      -0.769214   -0.493012   -0.724466
