16

N      -0.091145   -1.155064   -0.062570
C      -0.058937   -0.001204   -0.015390
C       0.004199    1.467054    0.018593
O      -0.471771    1.971296    1.274560
C       0.663160    2.674352    1.765084
C       1.349964    3.460407    0.612864
C       2.714419    3.228348    1.302518
C       1.969901    1.883832    1.475346
C       1.436190    2.018247    0.008617
H      -0.610693    1.863418   -0.798752
H       0.447327    3.119096    2.734596
H       0.981175    4.355309    0.111413
H       3.591010    3.216100    0.651554
H       2.909471    3.803676    2.211323
H       2.312000    0.970411    1.960246
H       2.075675    1.798877   -0.844957
