15

N      -0.015963   -1.176312    0.048405
C      -0.025598   -0.019926    0.042584
C      -0.032700    1.429391    0.027727
C      -0.690979    2.416066    1.001205
N      -0.038733    3.372244    0.002547
C       1.191386    2.414946   -0.010814
C       1.721344    2.472163   -1.425466
C       0.610184    2.459142   -2.163647
C      -0.487486    2.395275   -1.126145
H      -1.782065    2.464951    1.011658
H      -0.278657    2.482564    2.010430
H       1.858570    2.489978    0.847271
H       2.758544    2.531845   -1.719497
H       0.478355    2.505114   -3.234304
H      -1.538148    2.450182   -1.409284
