25

C      -0.128534    1.588184    0.021503
C      -0.027014    0.060123    0.007323
C       0.667542   -0.457500   -1.263543
C       0.800206   -1.988123   -1.264050
C       1.522721   -2.529919   -0.013162
C       3.029752   -2.230671   -0.017252
C       0.807765   -2.004553    1.244057
O       1.504643   -2.500729    2.382030
C       0.695660   -0.474825    1.256141
H       0.867197    2.047319    0.012540
H      -0.672025    1.957874   -0.854643
H      -0.650689    1.946114    0.915451
H      -1.049762   -0.347493    0.014986
H       0.108765   -0.133438   -2.149730
H       1.659571    0.007063   -1.342471
H      -0.204907   -2.428571   -1.314960
H       1.327666   -2.321795   -2.165163
H       1.412347   -3.621581   -0.001849
H       3.245370   -1.159882   -0.081564
H       3.495633   -2.609005    0.894670
H       3.507589   -2.712421   -0.876779
H      -0.217229   -2.416410    1.231832
H       1.090885   -2.129246    3.167471
H       1.700594   -0.038629    1.323280
H       0.158295   -0.158136    2.161530
