16

O       0.126458    0.066994   -0.772676
C       0.047417    1.117531   -0.218786
C      -1.041046    1.883139    0.545703
N      -0.155019    3.082369    0.547288
C       0.239598    3.611916    1.870274
C       1.390989    2.731443    2.388431
C       2.024357    2.148869    1.119754
O       3.109552    1.650323    1.007880
C       0.993886    2.323815   -0.012442
H      -1.988623    2.022769    0.015640
H      -1.252895    1.451229    1.535140
H       0.577663    4.646415    1.745990
H      -0.627787    3.631095    2.534501
H       2.138233    3.256083    2.986483
H       1.027872    1.887953    2.989565
H       1.470001    2.721528   -0.913580
