20

C       0.002721    1.585430   -0.045161
C       0.031563    0.054967   -0.012697
C       0.703727   -0.598539   -1.219234
N       2.147995   -0.318990   -1.355875
C       1.702975   -1.594818   -0.747845
C       1.710531   -1.603511    0.765005
C       2.195171   -0.341301    1.460387
C       0.724884   -0.556995    1.222339
O      -0.095274   -0.818490    2.326242
H       1.014709    1.987731   -0.141747
H      -0.589422    1.954106   -0.889420
H      -0.444161    1.988390    0.870523
H      -0.998299   -0.322390    0.026425
H       0.120871   -0.746769   -2.123508
H       2.432475   -0.482324   -2.318142
H       1.893167   -2.519026   -1.282263
H       1.791281   -2.551884    1.281920
H       2.521888   -0.464806    2.487924
H       2.743645    0.380604    0.868733
H      -0.098182   -0.034811    2.885958
