16

C       0.066405    1.564130   -0.182320
O       1.525724    1.447119    0.100675
C       1.163056    0.297366    0.928934
C       1.259968   -1.259049    1.142637
C      -0.356047   -1.124541    1.119034
C      -0.053600    0.040385    0.109866
N       0.269788   -0.626149   -1.172645
C       1.113047   -1.563658   -1.115251
O       1.715405   -1.994911    0.022267
H      -0.409325    2.235633    0.540169
H      -0.114976    1.866135   -1.215026
H       0.913771    0.688951    1.924785
H       1.764020   -1.666995    2.018097
H      -0.899252   -1.989967    0.734803
H      -0.741874   -0.814907    2.089367
H       1.428121   -2.134921   -1.983561
