21

C       0.046063    1.619118    0.009869
C      -0.147415    0.123403   -0.225688
C       0.754396   -0.422721   -1.314524
O       1.551644    0.219429   -1.951960
O       0.548157   -1.747061   -1.486216
C       1.333039   -2.383737   -2.498914
C       2.759086   -2.852236   -2.132671
C       2.453648   -4.169481   -2.901579
C       0.937166   -3.844685   -2.772265
H       1.076363    1.839583    0.300297
H      -0.164751    2.188837   -0.898618
H      -0.620273    1.971387    0.802140
H       0.044762   -0.455779    0.685388
H      -1.182197   -0.110152   -0.503363
H       1.331032   -1.759481   -3.394980
H       3.593746   -2.230465   -2.458915
H       2.836818   -3.027043   -1.055647
H       2.794479   -4.126139   -3.939163
H       2.804529   -5.102940   -2.458763
H       0.507068   -4.294025   -1.872921
H       0.281677   -4.047044   -3.621823
