15

O       0.151764    1.391258   -0.415111
C       0.103978    0.070280    0.074387
C      -1.307281   -0.491432    0.090195
O      -1.795959   -1.173453   -1.073037
C      -1.567741   -1.962991    0.092555
C      -0.486653   -2.910068    0.082409
C       0.394547   -3.726855    0.100159
C      -2.359992    0.349033    0.748023
O      -2.118881    1.356196    1.368253
H      -0.325068    1.937581    0.221819
H       0.717654   -0.546260   -0.585770
H       0.517225   -0.008828    1.091769
H      -2.480862   -2.315154    0.574183
H       1.177214   -4.445525    0.107129
H      -3.396306   -0.025911    0.607580
