21

O      -0.048689    1.476730    0.151228
C       0.052657    0.061106    0.110789
C      -1.357397   -0.496969   -0.038717
C      -1.400663   -2.026669   -0.067624
O      -0.831629   -2.593021    1.113527
C      -2.821796   -2.557593   -0.309236
C      -2.869800   -4.091210   -0.399809
C      -4.283134   -4.618916   -0.385476
O      -4.765540   -5.342417   -1.218113
H       0.833054    1.836822    0.282995
H       0.672338   -0.271946   -0.738211
H       0.512182   -0.339907    1.025106
H      -1.974542   -0.125776    0.791702
H      -1.802015   -0.097332   -0.957556
H      -0.750984   -2.389276   -0.875304
H      -1.318504   -2.241924    1.868569
H      -3.469889   -2.212091    0.510065
H      -3.222398   -2.113431   -1.227969
H      -2.365567   -4.458482   -1.298511
H      -2.346122   -4.497388    0.476463
H      -4.886154   -4.277086    0.490733
