19

C      -0.028753    1.392789    0.011181
N       0.006737   -0.058757    0.016289
C       0.567612   -0.639521   -0.958129
O       1.162582   -0.042436   -2.048542
C       1.648739   -1.049197   -2.868751
C       1.381520   -2.248246   -2.335302
C       1.692080   -3.617919   -2.825226
N       0.702622   -2.006441   -1.135265
C       0.199937   -2.976511   -0.189964
H       0.976275    1.839663    0.002638
H      -0.566505    1.798827   -0.858195
H      -0.541044    1.739350    0.912774
H       2.146396   -0.743915   -3.771659
H       2.224328   -3.560955   -3.777165
H       2.322075   -4.169109   -2.117345
H       0.782265   -4.209416   -2.980725
H       1.007674   -3.590179    0.224577
H      -0.271359   -2.414408    0.617407
H      -0.544262   -3.636857   -0.649163
