19

C      -0.561732    1.517657    0.027291
C       0.113106    0.149361   -0.014799
C       1.004563   -0.137649   -1.241616
C       2.189142   -0.974978   -0.741713
O       3.082688   -1.396513   -1.428480
C       2.077179   -1.155963    0.775400
C       3.392564   -1.153980    1.544864
C       1.044149   -0.107246    1.181491
O       0.990004    0.454169    2.245302
H       0.179494    2.318666   -0.061408
H      -1.280566    1.627035   -0.789748
H      -1.085497    1.656227    0.975999
H      -0.657964   -0.633520    0.046800
H       0.493209   -0.647269   -2.062583
H       1.415389    0.790922   -1.658412
H       1.570083   -2.128347    0.904845
H       3.888793   -0.183210    1.459220
H       3.216586   -1.347523    2.605083
H       4.063576   -1.915923    1.142479
