17

O      -0.031038    1.459046   -0.031258
C       0.029404    0.059126    0.016979
C      -0.027105   -0.660321    1.405083
C      -1.493771   -0.159817    1.521672
C      -1.361864   -0.656862    0.038246
C      -2.364534   -0.659364   -0.985391
C      -3.205558   -0.660928   -1.845326
C      -0.614597   -1.885137    0.638432
O       0.181159   -2.607286   -0.263479
H       0.860951    1.794193   -0.155428
H       0.745015   -0.346722   -0.700507
H       0.732884   -0.669156    2.186446
H      -2.166927   -0.737334    2.160450
H      -1.628168    0.912064    1.641643
H      -3.946483   -0.661022   -2.605668
H      -1.253211   -2.543588    1.239462
H       0.652201   -3.287154    0.227640
