20

O       0.113738    0.004116    0.637038
C       0.124533    1.205997    0.453598
N       1.217515    1.921345    0.101625
C       2.530324    1.292750   -0.081899
C       3.379831    2.417836   -0.696318
C       2.735228    3.677176   -0.133499
C       3.379516    4.434989    1.000528
C       3.262968    5.058432   -0.373474
C       1.244781    3.371135   -0.109167
H      -0.777972    1.842522    0.559530
H       2.929236    0.963283    0.885370
H       2.442337    0.407978   -0.717190
H       4.439278    2.328585   -0.445293
H       3.292275    2.402914   -1.789448
H       2.743656    4.820670    1.790733
H       4.361846    4.117129    1.334572
H       4.165317    5.164559   -0.966683
H       2.549301    5.865252   -0.507192
H       0.772905    3.640483   -1.065704
H       0.715045    3.902873    0.688179
