20

C      -0.095936    0.310335    0.788948
C      -0.163789   -0.450866   -0.537904
C       0.893113    0.036592   -1.527584
O       0.818641   -0.626270   -2.788665
C       1.374366   -1.857593   -2.857306
C       2.094703   -2.646070   -1.987325
C       2.417486   -3.843486   -2.702486
C       1.889578   -3.743508   -3.961559
N       1.248563   -2.520338   -4.045674
H       0.874413    0.174477    1.279268
H      -0.243855    1.386068    0.641144
H      -0.867725   -0.037979    1.481039
H      -0.028485   -1.523746   -0.366884
H      -1.151218   -0.326038   -0.997322
H       0.738808    1.095743   -1.756490
H       1.904443   -0.071785   -1.112791
H       2.359091   -2.409978   -0.970080
H       2.976639   -4.681880   -2.316405
H       1.903744   -4.418099   -4.801138
H       0.769708   -2.144893   -4.845189
