19

C      -0.380031    1.576493    0.045114
O      -0.284452    0.255898    0.529232
C      -1.284327   -0.611962    0.040803
C      -1.135393   -1.015176   -1.455975
C      -1.490679   -2.480641   -1.445076
C      -1.577463   -2.974595   -0.209959
C      -1.247084   -1.940708    0.846080
C       0.137978   -2.231668    1.420567
O       0.337262   -2.575676    2.555464
H       0.399648    2.159194    0.540780
H      -0.225482    1.632862   -1.042367
H      -1.360397    2.020369    0.278706
H      -2.273260   -0.149337    0.185073
H      -1.779266   -0.427339   -2.119395
H      -0.102042   -0.853042   -1.791787
H      -1.648855   -3.050655   -2.354152
H      -1.801392   -4.003477    0.046408
H      -1.944581   -1.938794    1.688350
H       0.965471   -2.149215    0.683623
