22

C      -0.084800    1.565844   -0.098947
C       0.049373    0.054677    0.025206
C       1.047056   -0.696675   -0.897700
C       1.396009   -1.633344    0.287767
C       0.761088   -0.596525    1.267208
C       1.815917    0.292649    1.929422
C      -0.192143   -1.168901    2.306970
O       0.555234   -1.951098    3.230161
H       0.884983    2.067360   -0.020599
H      -0.515931    1.833764   -1.070309
H      -0.739123    1.981048    0.676115
H      -0.944139   -0.400237   -0.078572
H       0.644108   -1.153437   -1.805202
H       1.891051   -0.060561   -1.183180
H       0.829065   -2.568339    0.260721
H       2.449687   -1.875196    0.445964
H       2.543435    0.668163    1.203043
H       1.358410    1.158279    2.422193
H       2.356441   -0.279057    2.688080
H      -0.719295   -0.345804    2.819937
H      -0.954889   -1.783862    1.802258
H      -0.050268   -2.299337    3.890586
