21

C      -0.207883    0.979130   -0.275842
C      -0.027037   -0.526510   -0.052303
N       0.738094   -1.138161   -1.131211
C       1.996282   -1.219902   -1.026442
O       2.683548   -0.716599    0.032177
C       4.058797   -1.052340    0.207465
N       2.798039   -1.874900   -1.979023
C       3.344701   -1.072208   -3.087070
C       2.253775   -2.060793   -3.312174
H       0.758075    1.491865   -0.238147
H      -0.659807    1.171697   -1.253709
H      -0.855313    1.410478    0.494687
H       0.440402   -0.695864    0.926617
H      -1.011672   -1.007686   -0.035725
H       4.689110   -0.586878   -0.557217
H       4.332699   -0.656555    1.187322
H       4.213153   -2.133877    0.184329
H       3.073903   -0.019883   -3.118492
H       4.369438   -1.298869   -3.366547
H       2.483400   -3.019346   -3.767204
H       1.251322   -1.680685   -3.477517
