25

C       0.172597    1.546312   -0.109143
C       0.005785    0.029343    0.066990
C       0.644808   -0.436373    1.382021
C      -1.472601   -0.424862    0.003442
O      -2.248838    0.154587    1.051290
C      -2.123075   -0.219131   -1.373576
C      -3.500204   -0.837692   -1.491119
C      -4.734712   -0.063109   -1.112959
C      -4.459800   -0.381028   -2.562215
H       1.230671    1.822856   -0.068638
H      -0.222012    1.903767   -1.065315
H      -0.332025    2.093831    0.695612
H       0.523150   -0.468634   -0.765173
H       0.099334   -0.021550    2.234821
H       0.620351   -1.527867    1.470104
H       1.689638   -0.116909    1.451069
H      -1.490799   -1.500676    0.225066
H      -2.409028    1.076221    0.823956
H      -2.189702    0.855534   -1.595372
H      -1.458396   -0.645569   -2.137419
H      -3.526398   -1.900142   -1.259517
H      -5.540217   -0.585558   -0.609406
H      -4.609519    0.964776   -0.788666
H      -4.145958    0.431899   -3.209619
H      -5.076728   -1.124012   -3.055628
