23

C       0.002965    1.569207    0.200457
C       0.020657    0.039669    0.062828
C       0.737951   -0.598356    1.261120
O      -1.324259   -0.454543   -0.009281
C       0.682601   -0.422623   -1.249087
C       0.033096    0.100473   -2.525253
C       0.456685    1.477013   -3.093932
O       0.800400    0.899386   -4.367972
C       0.580260   -0.435121   -3.867958
H       1.015194    1.985743    0.187092
H      -0.574119    2.027319   -0.606645
H      -0.459645    1.861086    1.150924
H       0.247552   -0.314892    2.199884
H       0.714982   -1.688836    1.181295
H       1.782286   -0.274901    1.321789
H      -1.792640   -0.152991    0.776158
H       1.745328   -0.149543   -1.230031
H       0.638970   -1.519067   -1.261588
H      -1.050435   -0.002789   -2.448345
H      -0.326032    2.239803   -3.186993
H       1.331078    1.927274   -2.601908
H       1.520253   -1.000156   -3.783915
H      -0.117038   -1.001678   -4.496488
