20

C      -0.005256    1.476428   -0.004945
C      -0.082154   -0.026520    0.047828
C       0.274740   -0.802581    1.253897
C      -0.109132   -2.240074    0.820777
C       1.112094   -2.154080   -0.123489
N       1.266031   -0.678922    0.119221
C      -1.398375   -2.071620    0.012029
C      -1.179249   -0.739911   -0.752081
O      -2.330693    0.095145   -0.768548
H       0.818026    1.831445    0.619773
H       0.177932    1.817036   -1.029709
H      -0.941118    1.923306    0.337606
H       0.465045   -0.412862    2.247577
H      -0.123397   -3.038689    1.562022
H       2.002189   -2.650796    0.270578
H       0.975067   -2.450793   -1.170667
H      -1.595133   -2.922425   -0.649987
H      -2.259284   -1.938236    0.676733
H      -0.839976   -0.917035   -1.784266
H      -3.000144   -0.337228   -1.307515
