15

C       0.349936    1.220345    0.179102
C      -0.329139   -0.089989   -0.102434
O      -1.342776   -0.497373    0.386602
O       0.403560   -0.794789   -1.042712
C      -0.063784   -2.019077   -1.425758
N       0.606113   -2.654224   -2.280071
C       0.152564   -3.959974   -2.720855
C      -1.094230   -4.473857   -2.126624
N      -2.074356   -4.847253   -1.641532
H       1.364820    1.040969    0.545261
H       0.437282    1.798838   -0.744998
H      -0.225254    1.775361    0.918533
H      -0.990991   -2.321155   -0.936862
H       0.029211   -3.933395   -3.810205
H       0.950925   -4.686523   -2.527589
