23

C      -0.539735    1.756145   -0.575921
C      -0.243028    0.260789   -0.445364
C      -1.493435   -0.607208   -0.271416
C      -1.152876   -2.098421   -0.185315
C      -2.376934   -3.006765   -0.052143
O      -2.170296   -0.213961    0.932794
C      -3.476942    0.276707    0.779023
C      -4.011913    0.630492    2.157087
O      -5.110160    1.079761    2.350527
H       0.383589    2.331358   -0.692177
H      -1.171131    1.964889   -1.447215
H      -1.054813    2.128837    0.313923
H       0.299860   -0.092456   -1.330678
H       0.414588    0.087473    0.415555
H      -2.166000   -0.442244   -1.127529
H      -0.578429   -2.371796   -1.078935
H      -0.486357   -2.246710    0.673431
H      -3.047941   -2.903724   -0.912680
H      -2.081180   -4.058133    0.011597
H      -2.943564   -2.764442    0.851310
H      -3.518062    1.180576    0.149864
H      -4.155590   -0.463259    0.324595
H      -3.289091    0.434467    2.979630
