16

C       0.136703    1.451888   -0.326779
C       1.475759    1.935436    0.286623
N       2.098550    0.671658    0.634512
N       3.352228    0.404997    1.026580
C       3.314914   -0.904934    1.293677
C       2.033742   -1.467006    1.082361
C       1.269721   -0.397998    0.654747
C      -0.112329    0.028109    0.263001
H      -0.682746    2.142312   -0.118716
H       0.242754    1.380895   -1.412681
H       2.096232    2.497814   -0.414958
H       1.329759    2.549909    1.183339
H       4.214439   -1.405158    1.623063
H       1.728466   -2.491779    1.216263
H      -0.773850    0.069146    1.137241
H      -0.585160   -0.638335   -0.463193
