19

C      -0.032827    1.597166    0.143033
C       1.524897    1.629241    0.128753
C       1.555495    0.084393   -0.060518
C      -0.003276    0.052313   -0.046360
C      -0.293909   -0.610238   -1.439142
O       0.796196   -1.546626   -1.497504
C       1.847822   -0.566260   -1.458547
C       1.413757    0.395006   -2.559676
C       0.080336    0.367699   -2.547530
H      -0.474710    1.914176    1.090506
H      -0.515719    2.155391   -0.662632
H       1.969577    2.206507   -0.685450
H       1.970627    1.964595    1.068072
H       2.059948   -0.479157    0.725704
H      -0.469754   -0.531268    0.748648
H      -1.246957   -1.130179   -1.530100
H       2.819610   -1.046674   -1.566915
H       2.071799    1.016299   -3.151475
H      -0.613252    0.961297   -3.127036
