20

C      -0.099794    1.542644   -0.032676
C       0.025662    0.036325    0.033497
C       1.386166   -0.642551   -0.097385
O       2.553077    0.127508   -0.158200
C       0.679790   -0.638223    1.210542
C       1.225694   -0.063632    2.520811
C       0.640779   -1.318670    3.169616
C      -0.790400   -1.473604    2.847336
N       0.197669   -1.900464    1.832210
H       0.797722    2.027124    0.360375
H      -0.236722    1.882601   -1.065720
H      -0.958825    1.897483    0.546671
H      -0.796629   -0.522107   -0.409160
H       1.421815   -1.592002   -0.631322
H       2.636604    0.476617   -1.051754
H       2.316467   -0.027786    2.528539
H       0.833697    0.895328    2.873396
H       1.141400   -1.934097    3.909616
H      -1.321463   -2.309262    3.292786
H      -1.402073   -0.596278    2.646949
