19

O      -0.432431    0.175248   -0.057611
C       0.005170    1.293352    0.029321
C       1.424440    1.700877   -0.302006
C       1.454213    2.880480   -1.262334
C       1.298101    4.329692   -0.846715
C       1.577771    4.699241    0.599411
O       2.817850    4.081629    0.938955
C       3.601518    3.934384   -0.245070
C       2.618072    3.837486   -1.396454
H      -0.640978    2.135180    0.374268
H       1.916803    1.976487    0.638438
H       1.942916    0.833050   -0.721303
H       0.977741    2.660382   -2.215141
H       0.645865    4.978086   -1.420071
H       1.639487    5.794855    0.695425
H       0.832520    4.338288    1.317257
H       4.263196    4.802226   -0.393832
H       4.229207    3.047201   -0.106142
H       2.963420    4.110054   -2.386932
