20

C      -0.138353    1.493985   -0.088158
N       0.061146    0.063532    0.087105
C       1.319680   -0.597790   -0.163020
C       2.540033    0.233002    0.282717
C       1.942876    0.297507    1.718461
C       2.762347   -0.241187    2.909157
O       2.589080    0.982981    3.647962
C       1.824275    1.573040    2.578328
C       0.731162   -0.515408    1.228418
H       0.719991    2.125801    0.180283
H      -0.380154    1.685637   -1.138297
H      -0.994201    1.806137    0.518086
H       1.339672   -1.428263   -0.860471
H       3.468402   -0.343680    0.257450
H       2.706631    1.181954   -0.236858
H       2.325913   -1.102733    3.433067
H       3.819340   -0.452317    2.698138
H       2.314446    2.465694    2.165530
H       0.809775    1.841168    2.899824
H       0.204903   -1.260753    1.817943
