17

N      -0.160970    1.492831   -0.003973
C      -0.045899    0.033221   -0.020674
C       0.543727   -0.463960    1.333859
O      -0.569030   -0.752484    2.150279
C      -1.488583   -1.419901    1.298901
C      -1.512335   -0.596503   -0.002184
O      -2.504209    0.394649   -0.020057
C       0.738685   -0.461978   -1.161573
N       1.366606   -0.822008   -2.064118
H       0.760343    1.916226    0.048731
H      -0.598398    1.817254   -0.861618
H       1.160240   -1.360806    1.170770
H       1.145808    0.304956    1.823025
H      -1.154193   -2.451254    1.098894
H      -2.466994   -1.441217    1.781169
H      -1.683494   -1.223917   -0.879139
H      -2.220541    1.083541    0.597145
