20

C      -0.117001    1.594393    0.079488
C       0.016647    0.086113   -0.037852
C       0.789951   -0.597251   -1.178362
C       2.102021   -0.168744   -0.453129
C       3.120294   -1.277582   -0.577580
C       2.379412   -2.372142   -0.426018
C       0.971234   -1.833273   -0.221909
C      -0.112237   -2.834590    0.102779
N       1.168745   -0.588214    0.730158
H       0.779482    2.140570   -0.223135
H      -0.945378    1.945126   -0.545787
H      -0.343365    1.869219    1.115128
H      -0.944788   -0.369021    0.216059
H       0.586802   -0.607054   -2.258843
H       2.437897    0.865582   -0.447034
H       4.184658   -1.163847   -0.723676
H       2.660697   -3.416046   -0.410504
H       0.117498   -3.343350    1.044768
H      -1.103683   -2.386777    0.197329
H      -0.164454   -3.594106   -0.684816
