17

C       0.131866    1.549111    0.064597
C      -0.045795    0.073722   -0.041177
C       0.434933   -0.944478   -1.034447
N       0.892705   -0.973775    0.413974
C      -0.225210   -1.656411    1.158379
C      -1.250004   -0.930358    0.267236
C      -0.925861   -1.530408   -1.092578
N      -1.543062   -2.113548   -2.031111
O      -2.890165   -2.355050   -1.675909
H       1.160235    1.818794   -0.193520
H      -0.545316    2.074978   -0.616312
H      -0.067422    1.901779    1.082277
H       1.201083   -0.877300   -1.793151
H      -0.206919   -2.751000    1.133063
H      -0.208976   -1.301918    2.191734
H      -2.272405   -0.708707    0.558237
H      -3.229271   -2.784359   -2.468338
