22

C       0.049375    1.447053    0.128411
C      -0.058591   -0.056767   -0.136703
N      -1.436762   -0.548957   -0.111094
C      -2.209234   -0.447599   -1.339296
C      -1.916946   -1.052485    1.069901
O      -1.248163   -1.021026    2.097218
C      -3.289614   -1.654956    1.073134
C      -3.552799   -2.708922    2.132551
C      -4.157240   -1.352680    2.285916
H       1.094798    1.768267    0.077122
H      -0.516612    2.031001   -0.605605
H      -0.333917    1.678996    1.125315
H       0.371293   -0.307950   -1.113392
H       0.492887   -0.604345    0.628678
H      -2.204921   -1.379680   -1.921243
H      -3.245058   -0.164413   -1.141856
H      -1.776137    0.337722   -1.963756
H      -3.800605   -1.785734    0.129192
H      -4.191949   -3.539323    1.855070
H      -2.709606   -2.948947    2.768524
H      -3.715859   -0.696216    3.026306
H      -5.220875   -1.225794    2.119080
