21

C      -0.030118    1.508621    0.101890
C       0.049882    0.000219    0.068019
C       0.875969   -0.799162   -1.002206
C       0.766854   -1.948398    0.051285
C       0.852269   -0.821484    1.119364
C      -0.739574   -2.250881   -0.049731
C      -1.576496   -2.435449    1.230982
O      -1.950483   -1.036735    1.247330
C      -1.269821   -0.794786   -0.008303
H       0.965172    1.963138    0.145008
H      -0.538765    1.899445   -0.787257
H      -0.591808    1.845857    0.980135
H       0.429341   -0.961871   -1.989400
H       1.891607   -0.411072   -1.110385
H       1.456260   -2.792918    0.055397
H       1.872392   -0.445799    1.229407
H       0.400832   -0.971765    2.101431
H      -0.998653   -2.888471   -0.895918
H      -2.456242   -3.079423    1.108422
H      -1.039764   -2.734060    2.139892
H      -1.958239   -0.429027   -0.778036
