14

O      -0.175906    0.190555   -0.324567
C       0.124430    1.202065    0.253127
C       1.426871    1.904002    0.032263
C       2.876558    1.351317    0.059651
C       2.909453    2.901808   -0.014286
C       1.827379    2.868876   -1.125765
O       1.831675    2.955703    1.001877
C       4.035915    3.791744    0.124921
N       4.952450    4.490513    0.204766
H      -0.544448    1.701552    0.986129
H       3.192215    0.933265    1.014579
H       3.228012    0.790875   -0.806945
H       2.092078    2.428654   -2.087792
H       1.224966    3.773226   -1.201427
