18

C       0.741690    1.424047   -0.330674
O       0.991419    0.037805   -0.389724
C      -0.091043   -0.699154   -0.892277
C       0.312726   -2.183644   -0.974296
C       0.662578   -2.724197    0.420523
N      -0.844349   -2.917067   -1.502076
C       1.494473   -2.315289   -1.864367
N       2.373294   -2.468026   -2.600183
H       0.528093    1.839601   -1.327173
H      -0.107177    1.656157    0.330857
H       1.641813    1.898255    0.065857
H      -0.975239   -0.626724   -0.240084
H      -0.381725   -0.339683   -1.893875
H      -0.232176   -2.682890    1.047377
H       1.002713   -3.761957    0.360236
H       1.451101   -2.121096    0.871663
H      -1.003764   -2.668084   -2.474808
H      -0.650514   -3.914351   -1.491223
