17

C       0.018492    1.437184   -0.059062
C      -0.144911   -0.039684   -0.044739
C      -1.224312   -0.867016   -0.060997
C      -0.717045   -2.207322   -0.027331
C       0.638049   -2.104360    0.014675
C       1.746318   -3.099897    0.022029
C       2.357922   -3.285530   -1.364332
O       2.601252   -4.353525   -1.859052
O       1.000755   -0.785172   -0.000117
H       0.593243    1.770996   -0.930616
H      -0.962048    1.916897   -0.092833
H       0.543831    1.793530    0.834420
H      -2.258382   -0.560508   -0.090064
H      -1.285800   -3.124172   -0.030250
H       2.547746   -2.754995    0.690437
H       1.398517   -4.071653    0.378863
H       2.565834   -2.332686   -1.900286
