16

O       0.301906    1.331166    0.192855
C       0.125346    0.001026   -0.012248
C      -0.048110   -0.771826   -1.135537
C      -0.177703   -2.120405   -0.680998
C      -0.081284   -2.122278    0.688458
N       0.111193   -0.806192    1.087364
C      -0.154552   -3.219359    1.667999
C      -1.276001   -4.180989    1.717088
O      -0.017091   -4.542825    1.149373
H       0.280583    1.773112   -0.661067
H      -0.064642   -0.420943   -2.155765
H      -0.302923   -3.000038   -1.292430
H       0.199450   -0.473001    2.031990
H       0.386003   -3.046492    2.602394
H      -1.527981   -4.680939    2.652523
H      -2.091675   -4.063970    1.005877
