21

C      -0.030472   -1.226554   -0.082367
C      -0.009212   -0.025447   -0.028439
C       0.017205    1.434338    0.053417
C      -0.801747    1.954501    1.259419
C      -0.682880    3.477111    1.370885
C       0.755006    3.916231    1.691385
C       1.808407    3.212623    0.833024
C       2.340256    1.859089    1.247762
C       1.450386    1.970245    0.041153
H      -0.048305   -2.286646   -0.137315
H      -0.475901    1.827232   -0.848228
H      -1.844983    1.651281    1.128424
H      -0.453794    1.473704    2.181706
H      -1.001896    3.926535    0.420731
H      -1.365891    3.854934    2.139438
H       0.841399    4.999172    1.554763
H       0.959736    3.729120    2.753224
H       2.528068    3.874199    0.360632
H       3.389943    1.636277    1.090952
H       1.926997    1.418611    2.149922
H       1.941207    1.849553   -0.919920
