21

C       0.273450    1.547303    0.024743
C       0.132753    0.097916    0.009697
C       0.003610   -1.100996   -0.007213
C      -0.076655   -2.537081   -0.032042
C      -0.401948   -3.389478    1.176822
C      -1.470172   -2.706705    2.040780
C      -2.476160   -2.812616    0.839219
C      -3.271210   -1.598498    0.375599
C      -1.340564   -3.383276   -0.025952
H       0.983243    1.875210    0.792716
H       0.634793    1.921337   -0.939862
H      -0.684551    2.038639    0.229429
H       0.688440   -2.996622   -0.655796
H       0.282257   -4.161198    1.508974
H      -1.778943   -3.292129    2.908949
H      -1.216586   -1.693496    2.366488
H      -3.170726   -3.631800    1.055897
H      -2.617829   -0.753655    0.149019
H      -3.847012   -1.833675   -0.526915
H      -3.982380   -1.284600    1.148357
H      -1.469352   -4.139506   -0.792991
