19

C      -0.074059    1.569952    0.009754
N       0.010145    0.126729    0.043319
C      -1.214629   -0.646296    0.484529
C      -0.215678   -1.649910    1.106181
C       0.576259   -2.311292    2.279929
C       1.659631   -1.796770    1.221420
C       0.754697   -2.392965    0.126916
C       0.772365   -0.498058    1.163103
H       0.903802    1.988579   -0.250510
H      -0.788826    1.884354   -0.758306
H      -0.392788    2.014201    0.972535
H      -1.809560   -0.096419    1.230424
H      -1.859384   -0.987464   -0.331826
H       0.546480   -1.796872    3.243839
H       0.512844   -3.396975    2.398291
H       2.743719   -1.906221    1.323840
H       0.671563   -3.483261    0.107981
H       0.848028   -1.967607   -0.870883
H       0.775012    0.125760    2.068984
