16

C       0.059681    1.406124   -0.153364
C       0.009205   -0.077094   -0.020737
O       0.526412   -0.926407   -1.092454
C       0.064779   -1.897817   -0.104935
C       0.185499   -3.300065   -0.333530
C       0.268654   -4.490215   -0.486977
C       0.499386   -1.015198    1.129035
N      -0.842762   -1.000167    1.786211
C      -1.179054   -1.029495    0.330355
H       1.092901    1.748253   -0.264708
H      -0.510305    1.734601   -1.027557
H      -0.370107    1.865014    0.741665
H       0.346711   -5.539558   -0.632230
H       1.448745   -1.019342    1.665472
H      -1.038810   -1.907872    2.214459
H      -2.193956   -1.050373   -0.067893
