13

N       0.003265    1.380358    0.154880
C       0.026285    0.013953    0.028182
N      -1.033276   -0.748500   -0.009954
O      -0.554163   -2.095380   -0.031215
C       0.784660   -2.036756   -0.035870
N       1.755292   -2.899731   -0.056657
C       2.880995   -2.081881   -0.021673
C       2.576047   -0.744764    0.020348
N       1.181580   -0.726760    0.005968
H       0.672483    1.867817   -0.426321
H      -0.930101    1.758744    0.058494
H       3.868840   -2.517680   -0.027261
H       3.176020    0.146116    0.068431
