14

C       0.015005    1.478660   -0.048856
C      -0.008872   -0.014490    0.045185
N      -0.084727   -0.755109   -1.054205
N      -0.075820   -2.038282   -0.596999
C       0.005827   -2.118716    0.754070
N      -0.042764   -3.350225    1.413753
C       0.054170   -0.817386    1.214128
H       0.936887    1.893869    0.373818
H      -0.052216    1.784380   -1.095111
H      -0.821960    1.927306    0.497834
H      -0.206350   -2.793319   -1.247537
H       0.617852   -4.026653    1.048511
H       0.111113   -3.244788    2.407560
H       0.139933   -0.495937    2.239973
