21

C      -1.456235   -0.629811    0.160183
C      -0.060282   -0.015572   -0.011676
C       0.706653   -0.531159   -1.243113
C       0.165394    0.130974   -2.513393
C       2.287267   -0.626525   -1.124924
C       2.082578   -1.882103   -0.206821
C       1.016887   -2.085324   -1.337903
C       2.176809   -1.662838   -2.253726
O       2.724627   -1.994678   -3.259281
H      -2.087158   -0.472002   -0.719911
H      -1.393616   -1.708889    0.334445
H      -1.971137   -0.184151    1.016895
H      -0.154130    1.072403   -0.117514
H       0.505631   -0.167810    0.910614
H       0.311454    1.216027   -2.470034
H       0.657032   -0.235624   -3.418500
H      -0.908220   -0.049660   -2.626354
H       2.997702    0.188719   -0.997419
H       2.902710   -2.601176   -0.169233
H       1.687858   -1.690832    0.788469
H       0.311008   -2.906041   -1.451826
