17

C       0.199297    1.534470    0.045122
C       0.104773    0.039073    0.029772
C       0.130917   -0.805115   -1.061971
O       0.245208   -0.595669   -2.392235
N       0.023322   -2.074080   -0.607310
N      -0.068997   -2.129857    0.745505
C      -0.028466   -0.856754    1.127846
C      -0.087228   -0.507269    2.583300
O       1.053308    0.234349    3.018428
H       0.773986    1.916139   -0.808644
H      -0.783372    2.022428    0.017699
H       0.707009    1.866707    0.954034
H       0.280029    0.353799   -2.548866
H       0.019558   -2.917984   -1.153927
H      -0.943168    0.142403    2.796450
H      -0.217661   -1.433288    3.159413
H       1.829600   -0.294509    2.805480
