16

C      -0.101888    1.557374    0.171259
C       0.115099    0.084773    0.061916
O      -0.804485   -0.815903    0.681238
C       0.584372   -0.942016    0.994594
C       1.285172   -1.715834   -0.187781
O       0.291029   -2.025229   -1.167059
C       0.827667   -0.701717   -1.139973
C       1.411341   -0.112787   -2.380972
H       0.811855    2.107980   -0.075560
H      -0.889363    1.888760   -0.515119
H      -0.403433    1.821136    1.188470
H       0.888809   -0.890343    2.033036
H       2.183648   -2.320106   -0.151566
H       0.622130    0.220566   -3.064398
H       2.039771    0.752730   -2.146517
H       2.021631   -0.855467   -2.901732
