21

C      -0.113521    1.565137    0.021165
C       0.055714    0.064565    0.082971
C       1.370346   -0.679645   -0.202152
C       2.647815    0.089295   -0.093094
C       3.538809    0.318499   -1.273585
C       2.836437    0.517204    1.162081
C       1.734613    0.075448    2.097845
C       0.763454   -0.682791    1.183721
O       0.192772   -1.860510    1.678069
H       0.802101    2.090032    0.304653
H      -0.380481    1.885131   -0.992117
H      -0.913517    1.898777    0.692444
H      -0.801222   -0.495768   -0.286193
H       1.315090   -1.553517   -0.843266
H       3.018231    0.873700   -2.064057
H       4.437204    0.877466   -0.997702
H       3.854474   -0.633177   -1.719865
H       3.675231    1.121820    1.490812
H       2.103316   -0.605567    2.876301
H       1.259481    0.919582    2.615977
H      -0.589369   -1.621077    2.186847
