20

C      -0.068752    1.523161    0.101717
C      -0.001383   -0.001112   -0.024569
C       0.768180   -0.500159   -1.271971
C       2.256906   -0.102565   -1.256769
C       0.617150   -1.982672   -1.417516
C       0.022441   -2.780300   -2.348054
C       0.248974   -4.093715   -1.859126
N       0.920080   -4.097542   -0.734735
O       1.155942   -2.751887   -0.451159
H       0.919163    1.968956    0.250276
H      -0.509254    1.977445   -0.793256
H      -0.688141    1.809946    0.956931
H       0.461719   -0.433410    0.870023
H      -1.019902   -0.404480   -0.066938
H       0.299149   -0.057111   -2.159536
H       2.760058   -0.521113   -0.380161
H       2.768549   -0.475726   -2.148599
H       2.370310    0.984014   -1.233694
H      -0.495478   -2.477517   -3.242585
H      -0.054097   -5.038208   -2.289202
