19

C      -0.008846    1.549313    0.250066
C       1.527173    1.466498   -0.091050
C       1.183314    0.215239   -0.941553
C       0.530038    0.576844   -2.307619
O      -0.743901   -0.097864   -2.294847
C      -0.707314   -0.865894   -1.117349
O       0.313467   -1.882809   -1.228026
C       1.624109   -1.234454   -1.068874
C      -0.069802    0.024986   -0.062573
H      -0.275922    1.841860    1.266512
H      -0.565793    2.168722   -0.454320
H       1.994411    2.313077   -0.599731
H       2.113616    1.217681    0.797382
H       0.367036    1.650035   -2.446134
H       1.135305    0.208645   -3.144450
H      -1.663771   -1.366247   -0.977851
H       2.229153   -1.474711   -1.949767
H       2.118243   -1.622528   -0.170184
H       0.156864   -0.551826    0.837467
