17

O      -0.716644    0.950568    0.597636
C       0.300604    0.806678   -0.033949
C       1.407324    1.815775   -0.064568
C       1.657828    2.741513    1.149699
C       2.087509    3.877275    0.187713
C       3.485752    3.620270   -0.442224
C       2.862792    2.539603   -1.356074
O       2.624452    1.301993   -0.643895
C       1.446037    3.074210   -1.007275
H       0.486686   -0.086387   -0.670240
H       0.698742    2.960375    1.627420
H       2.375606    2.386816    1.893674
H       1.824419    4.900497    0.451562
H       3.807812    4.479911   -1.038909
H       4.301842    3.305390    0.213625
H       3.273002    2.362642   -2.351634
H       0.662020    3.394085   -1.687917
