15

C       0.108953    1.475469    0.078901
C       0.080045   -0.013369   -0.015495
C      -0.061782   -0.788031   -1.135421
N      -0.222370   -0.546326   -2.515854
N      -0.022793   -2.110670   -0.671972
C       0.136623   -2.040956    0.666975
O       0.209950   -3.167315    1.399779
N       0.204224   -0.816374    1.114764
H       1.051159    1.829622    0.512303
H      -0.002280    1.928965   -0.910483
H      -0.698015    1.850500    0.718561
H      -1.065627   -0.023007   -2.723082
H       0.561937   -0.043749   -2.916082
H      -0.099719   -2.935884   -1.241576
H       0.321962   -2.879082    2.314572
