18

N      -0.035467   -1.124798    0.086870
C      -0.045236    0.031729    0.073060
C      -0.052511    1.482022    0.056889
C      -0.217837    2.175750   -1.320700
O       0.931865    3.005622   -1.083181
C       1.325403    2.227243    0.071782
C       1.420832    3.026331    1.379289
C       0.260931    2.495623    2.250385
C      -0.835019    2.111030    1.239807
H      -0.071971    1.503450   -2.174177
H      -1.136002    2.756593   -1.459263
H       2.203763    1.611692   -0.147275
H       2.393514    2.919061    1.865140
H       1.279821    4.083935    1.136221
H       0.584007    1.603462    2.798983
H      -0.085423    3.222238    2.989710
H      -1.350257    3.009104    0.883856
H      -1.587162    1.435397    1.651419
