15

C      -0.278839    1.443408    0.094452
C       0.020311   -0.014203    0.046927
N       1.134899   -0.486386   -0.447582
O       1.000713   -1.875251   -0.292359
C      -0.192243   -2.077703    0.276364
C      -0.601152   -3.473733    0.591197
C      -0.942595   -3.656581    2.073935
O      -0.703957   -4.662844    2.681506
N      -0.847312   -0.981912    0.514984
H      -0.444743    1.761742    1.127908
H       0.548308    2.014062   -0.329626
H      -1.192706    1.660457   -0.466424
H      -1.517746   -3.706406    0.032003
H       0.168771   -4.189654    0.300741
H      -1.451563   -2.785555    2.535924
