19

O       0.242237    0.049495   -0.659565
C       0.116918    1.169527   -0.256280
C      -1.096990    2.002289    0.214881
C      -0.131369    3.192124    0.480582
C       0.562881    3.317494    1.877309
C       0.259138    2.265994    2.978573
C       1.406405    1.355925    2.430716
C       1.755406    2.441247    1.370405
C       1.084821    2.343756   -0.045020
H      -1.787712    2.188884   -0.614895
H      -1.676347    1.591756    1.046097
H      -0.412505    4.135918    0.014736
H       0.703392    4.346439    2.211383
H       0.464969    2.647185    3.981776
H      -0.745689    1.836368    2.989322
H       2.207053    1.178325    3.152117
H       1.099656    0.388147    2.027109
H       2.784720    2.800340    1.358454
H       1.709762    2.621300   -0.895586
