20

C       2.880265   -0.749316    0.307453
N       1.526448   -1.256019    0.475728
C       1.302431   -2.280713    1.487494
C       0.749089   -0.905396    1.664729
C       1.244446    0.007577    2.756462
C       1.009916    1.544107    2.566898
C       0.430341    1.576835    3.989705
O       0.188598    2.451490    4.768403
C       0.384914    0.041988    4.063916
H       3.490146   -0.744298    1.224507
H       3.394880   -1.374491   -0.429059
H       2.841164    0.271723   -0.085634
H       0.663342   -3.112011    1.200454
H       2.142098   -2.555815    2.126891
H      -0.308711   -0.755757    1.438323
H       2.289307   -0.195508    2.998315
H       1.874411    2.184415    2.375538
H       0.240503    1.764894    1.817647
H      -0.634095   -0.332907    3.910201
H       0.791171   -0.419059    4.967260
