19

O       0.146516    1.402913   -0.190271
C       0.057638    0.004672   -0.014797
C       0.163745   -0.755744   -1.358577
O      -1.024156   -1.516155   -1.061304
C      -1.365967   -0.627727    0.030767
C      -1.779973   -1.352254    1.295347
C      -0.649898   -2.230782    1.851429
C       0.662647   -1.494678    1.890735
C       0.969823   -0.493420    1.063972
H       0.175353    1.811255    0.681438
H       0.025117   -0.084670   -2.216587
H       1.038808   -1.394095   -1.514373
H      -2.124747    0.102277   -0.283144
H      -2.056805   -0.592506    2.037898
H      -2.675895   -1.951660    1.100282
H      -0.910208   -2.594036    2.851467
H      -0.542683   -3.123662    1.221607
H       1.397978   -1.824148    2.620992
H       1.942403   -0.007455    1.112908
