18

C      -0.003001    1.506299   -0.001244
C       1.409601    2.061950    0.004460
N       1.686681    3.154857    0.953848
C       2.291528    1.818798    1.175543
C       1.835309    1.071214    2.381256
C       1.086256   -0.032559    2.380198
C       0.567270   -0.730556    1.170708
O      -0.854569   -0.670894    0.936559
C       0.016290   -0.011272    0.013111
H      -0.519448    1.854454    0.895003
H      -0.562385    1.877923   -0.866788
H       1.903340    2.108877   -0.964922
H       2.383360    3.788316    0.569576
H       3.360233    1.738647    0.975015
H       2.165364    1.480038    3.334903
H       0.827512   -0.497500    3.329907
H       0.977433   -1.729331    1.005200
H       0.079525   -0.503845   -0.958783
