18

C       0.052487    1.575524    0.027800
C       0.035596    0.045649   -0.002072
C       0.804349   -0.571862   -1.200285
C       1.285624   -1.965963   -0.736216
C       1.437518   -1.800378    0.768516
O       2.127388   -0.600419    1.153592
C       0.694822   -0.600691    1.203941
C       1.643727   -2.951358    1.613956
N       1.799785   -3.896996    2.260115
H       1.079040    1.945571    0.113550
H      -0.381857    1.987474   -0.888308
H      -0.521469    1.966123    0.874262
H      -1.006318   -0.303747   -0.015497
H       0.187268   -0.627144   -2.099787
H       1.668855    0.054900   -1.431928
H       0.535690   -2.741560   -0.927420
H       2.217216   -2.279652   -1.214530
H       0.268070   -0.516843    2.200385
