19

O       0.050384   -0.068185    0.059740
C      -0.040073    1.137552    0.005381
C      -1.381885    1.857848   -0.048726
C      -1.428443    3.034684   -1.055544
C      -0.092166    3.705384   -1.341756
C       0.947430    4.199434   -0.361366
C       1.060855    3.337822    0.896363
C       1.165660    2.051737    0.000763
C       1.214148    2.977242   -1.246519
H      -2.158156    1.120470   -0.263806
H      -1.574598    2.229465    0.965734
H      -1.798475    2.647102   -2.012756
H      -2.165076    3.776960   -0.726111
H      -0.137816    4.360053   -2.210031
H       1.353184    5.199874   -0.458445
H       2.008203    3.506435    1.413185
H       0.254275    3.391217    1.633457
H       2.067973    1.464765    0.167580
H       1.896933    2.848393   -2.076942
