15

C      -0.093263    1.424745   -0.000628
N      -0.046895   -0.026441    0.104570
C      -1.088556   -0.693463   -0.009409
O      -2.425337   -0.300351   -0.214380
C      -2.869311   -1.658528   -0.047643
C      -2.321255   -2.513180   -1.121945
C      -1.427979   -2.153694    0.086514
C      -0.833849   -3.128184    0.934651
N      -0.360154   -3.928402    1.622618
H       0.526771    1.735958   -0.847690
H      -1.102301    1.831650   -0.129874
H       0.354061    1.856072    0.900331
H      -3.732151   -1.838247    0.578217
H      -2.642855   -3.549499   -1.125031
H      -2.091715   -2.082143   -2.090621
