14

N      -0.294347    1.351986   -0.026377
C      -0.027518   -0.070029   -0.104881
C       0.881959   -0.458659   -1.212015
N       1.586801   -0.723615   -2.088984
C       0.553599   -0.583497    1.212127
O       1.342852    0.327834    1.961636
C       0.109919   -0.118485    2.541208
C      -0.943070    0.845422    2.776923
N      -1.804273    1.548827    3.091120
H       0.567000    1.869476    0.110445
H      -0.747965    1.688184   -0.867483
H      -0.976736   -0.595489   -0.272088
H       0.952264   -1.596639    1.159011
H       0.236860   -0.809623    3.373712
