22

C      -0.228795    1.550728    0.016708
C      -0.018534    0.029830   -0.055715
C       0.630831   -0.337921   -1.399492
C       0.772796   -0.531415    1.150031
C       0.261603   -0.036985    2.501550
C       0.918012   -2.086286    1.128555
N       2.359862   -2.355445    1.023235
C       2.914725   -1.217084    0.977913
O       2.170945   -0.090703    1.031433
H       0.732655    2.070116    0.086388
H      -0.734951    1.904901   -0.886658
H      -0.839780    1.848346    0.872475
H      -1.004309   -0.455309   -0.006075
H       1.588232    0.178261   -1.515286
H       0.814564   -1.410581   -1.503138
H      -0.017718   -0.031656   -2.225694
H      -0.798343   -0.285696    2.621352
H       0.817676   -0.519405    3.310621
H       0.379108    1.043184    2.606656
H       0.522991   -2.540842    2.043774
H       0.389453   -2.549246    0.288555
H       3.982975   -1.045185    0.896426
