20

C       0.249096    1.361435   -0.532017
C      -0.096848    0.022764    0.067192
O       0.956478   -0.937536    0.189843
C       0.332775   -0.461931    1.392731
C       1.192675    0.265101    2.374864
C       0.764917    0.976698    3.683472
N       2.295908    1.126508    3.731417
C       2.311883   -0.339003    3.262923
C       2.171971    1.457599    2.235765
H       1.216180    1.722111   -0.180241
H       0.295202    1.279673   -1.623089
H      -0.517741    2.104016   -0.286055
H      -1.027841   -0.406886   -0.311273
H      -0.312111   -1.207228    1.867701
H       0.234973    1.930061    3.601819
H       0.361556    0.365056    4.495544
H       2.024062   -1.049393    4.043193
H       3.244638   -0.634659    2.776273
H       3.095903    1.299008    1.673760
H       1.754197    2.450650    2.049518
