20

C      -0.062546    1.526795   -0.052963
N       0.005597    0.069094   -0.049994
C       0.727399   -0.784086   -1.032034
C       2.238372   -0.668560   -0.744780
C       2.775176    0.501999    0.037697
C       2.189874   -0.667905    0.785562
C       0.663738   -0.783125    0.976619
C       0.348147   -1.951452   -0.038165
O      -0.964966   -2.406233   -0.079573
H       0.444357    1.958478   -0.922944
H      -1.110134    1.852413   -0.087017
H       0.387058    1.959240    0.847600
H       0.380400   -0.769397   -2.066395
H       2.919397   -1.297445   -1.306709
H       3.859308    0.557451    0.072007
H       2.303590    1.472294    0.022408
H       2.833867   -1.296337    1.390048
H       0.251899   -0.767445    1.986900
H       1.011441   -2.817790   -0.016722
H      -1.499730   -1.598821   -0.096898
