18

C      -0.090131    1.445330    0.090877
C      -0.009726   -0.033764   -0.028543
N       0.074888   -0.753382   -1.101895
C       0.114381   -2.074099   -0.653344
C       0.200385   -3.224515   -1.599870
C       0.053926   -2.073120    0.704715
C       0.065355   -3.124013    1.768275
O       0.961494   -4.189413    1.483526
O      -0.022141   -0.760883    1.117205
H       0.745968    1.840900    0.677038
H      -0.063579    1.882224   -0.907507
H      -1.015313    1.751213    0.590476
H       1.034961   -3.089439   -2.295814
H       0.342867   -4.159181   -1.054545
H      -0.710331   -3.302607   -2.204228
H       0.288383   -2.639767    2.730862
H      -0.916938   -3.599978    1.869775
H       1.825847   -3.800271    1.311062
