21

C       0.054345    1.638180    0.054599
C      -0.025783    0.116291    0.039424
O      -1.420471   -0.265502    0.003077
C      -1.943885   -0.914349    1.055465
O      -3.087279   -1.258067    1.105338
C       0.657952   -0.516597   -1.160288
C       2.207805   -0.426109   -1.262025
C       2.215632   -1.883641   -1.797715
C       0.784041   -2.064207   -1.223315
H       1.098787    1.963805    0.058544
H      -0.435791    2.054289   -0.830515
H      -0.437507    2.045842    0.942191
H       0.419424   -0.288571    0.960548
H      -1.204477   -1.092693    1.861927
H       0.189459   -0.134773   -2.073897
H       2.631698    0.357422   -1.894117
H       2.670514   -0.359424   -0.271057
H       2.219573   -1.911718   -2.890774
H       2.997443   -2.552473   -1.431827
H       0.805144   -2.503763   -0.220086
H       0.052270   -2.607971   -1.823405
