17

O      -0.006065    0.006487    0.376880
C      -0.021627    1.148453    0.009811
O      -1.197503    1.706296   -0.382052
C      -1.302275    3.060648   -0.865570
C       0.007336    3.842789   -0.813714
C       1.148867    2.940165   -1.282254
C       1.207523    2.046950   -0.032346
C       1.125199    3.111394    1.081782
O       0.334524    4.173689    0.536400
H      -1.672016    3.001218   -1.896119
H      -2.055609    3.559638   -0.249351
H      -0.104939    4.775869   -1.372808
H       0.924717    2.394532   -2.202049
H       2.076596    3.502351   -1.417105
H       2.088195    1.412306    0.055257
H       0.660012    2.735884    1.999305
H       2.125915    3.488243    1.329186
