17

C       0.077439    1.451018   -0.001998
N      -0.014654    0.012528    0.112042
C      -1.202278   -0.667001    0.058972
C      -2.428132   -0.033721    0.063246
C      -3.671689   -0.755698    0.042593
O      -4.801764   -0.288560    0.046617
N      -3.509178   -2.163518    0.008069
C      -2.310319   -2.800348   -0.003678
C      -1.148036   -2.104567    0.021067
H       1.128701    1.742433    0.039111
H      -0.354910    1.828775   -0.939638
H      -0.441772    1.940209    0.829811
H       0.812948   -0.514696   -0.106884
H      -2.515138    1.043601    0.082970
H      -4.374525   -2.682659   -0.010920
H      -2.341414   -3.883213   -0.032354
H      -0.198480   -2.624363    0.020785
