17

C       0.058715    1.525940   -0.029094
C      -0.026319    0.024781   -0.014790
C      -1.199876   -0.675902    0.007083
C      -2.546092   -0.008252    0.019184
C      -1.144958   -2.135511    0.019076
O      -2.131429   -2.868500    0.039288
C       0.221645   -2.673897    0.006121
N       1.315399   -1.974829   -0.014700
N       1.166111   -0.643727   -0.024727
H       1.095124    1.875000   -0.049977
H      -0.453971    1.935705   -0.904839
H      -0.423562    1.950887    0.856688
H      -2.704527    0.616040   -0.868298
H      -3.312952   -0.784516    0.039164
H      -2.678704    0.636527    0.896140
H       0.342072   -3.752865    0.014380
H       2.034874   -0.133880   -0.040888
