17

O       0.092638    0.027153    0.136937
C       0.013514    1.215570    0.060034
C      -1.167466    2.220120    0.041669
C      -0.138194    3.350767    0.172509
C      -0.077484    4.816497   -0.266190
C       0.888134    5.099235    0.935153
C       0.608310    3.673512    1.493453
O       1.656292    2.706198    1.247459
C       1.060968    2.370488   -0.023017
H      -1.664256    2.202301   -0.937093
H      -1.929534    2.107988    0.817596
H       0.297685    5.018149   -1.273096
H      -1.038211    5.326375   -0.149506
H       1.936354    5.227861    0.658405
H       0.588651    5.921178    1.588496
H       0.186837    3.587813    2.498063
H       1.769631    2.361956   -0.857276
