17

O       0.166798    0.002024    0.385902
C       0.136766    1.107393   -0.084318
C       1.350043    2.044212   -0.107606
C       1.341458    2.878059   -1.302333
C       1.292860    3.568429   -2.285161
C       1.328257    2.898537    1.183268
C       1.678846    2.135576    2.480342
O       2.956194    2.800230    2.571245
C       2.633810    3.672639    1.470581
H      -0.794744    1.546007   -0.503101
H       2.244573    1.410370   -0.084384
H       1.268043    4.172902   -3.158315
H       0.415960    3.497673    1.216101
H       1.032596    2.369273    3.335897
H       1.776182    1.048532    2.390319
H       3.393341    3.648698    0.680723
H       2.487284    4.710756    1.795201
