18

C      -0.145408    1.479949   -0.173083
N       0.146660    0.075755   -0.008953
C       1.089778   -0.622260   -0.895668
C       1.475350   -1.521101    0.305581
C       0.776407   -0.455789    1.187875
C       1.593201    0.386752    2.209412
O       0.764751   -0.127409    3.296716
C      -0.041639   -0.839242    2.436591
O      -0.996005   -1.491933    2.705842
H       0.751993    2.125290   -0.166009
H      -0.659924    1.632355   -1.127249
H      -0.817960    1.816010    0.622980
H       0.630560   -1.101218   -1.766523
H       1.925746    0.009234   -1.238107
H       0.947443   -2.475368    0.318281
H       2.537492   -1.680253    0.492311
H       2.639485    0.106974    2.351418
H       1.492450    1.471280    2.126822
