20

C      -0.142360    1.539246    0.019018
C       0.131725    0.039916   -0.006059
C       1.063608   -0.424770   -1.142215
N       1.621936   -1.680618   -0.632326
C       1.319038   -1.897816    0.786832
C       0.837461   -0.519702    1.254231
O       1.906625    0.305230    1.698394
C       2.288974   -2.597935   -1.374213
O       2.718441   -3.651173   -0.947239
H       0.778709    2.095019    0.212161
H      -0.564250    1.880866   -0.931642
H      -0.854745    1.792010    0.810333
H      -0.815564   -0.505886   -0.105887
H       0.530970   -0.577101   -2.085842
H       1.851792    0.320408   -1.325623
H       0.543146   -2.664456    0.906603
H       2.205035   -2.236767    1.329377
H       0.154329   -0.589777    2.104360
H       2.648868    0.199216    1.093559
H       2.406065   -2.278567   -2.429905
