20

O      -0.071039    1.424368   -0.031450
C       0.020135    0.023266    0.044401
C       0.223980   -0.668706    1.430489
C      -0.697475   -1.793608    0.867957
C      -1.337330   -0.703498   -0.036316
C       0.096713   -2.779776   -0.006002
C       1.276473   -2.062701   -0.704287
C       0.980114   -0.572019   -0.998990
H       0.821658    1.785381   -0.061964
H       1.235850   -0.923273    1.759133
H      -0.280323   -0.093598    2.210722
H      -1.354403   -2.308478    1.571456
H      -2.106287   -0.133278    0.490985
H      -1.705220   -0.996383   -1.024801
H       0.483504   -3.608834    0.597507
H      -0.583405   -3.223709   -0.743564
H       2.148692   -2.114874   -0.044852
H       1.564707   -2.586319   -1.620874
H       0.538131   -0.434135   -1.992759
H       1.923702   -0.008359   -0.995159
