16

C       0.422820    1.460606    0.146317
N       0.517163    0.013924    0.096422
C       0.553998   -0.575643   -1.018152
O       0.534765    0.085786   -2.218957
C       0.383324   -0.710108   -3.390002
O       1.292894   -1.756876   -3.422807
C       0.986743   -2.715387   -2.423049
C       0.686347   -2.092730   -1.059522
O       0.553530   -2.780446   -0.081514
H      -0.182891    1.740543    1.012863
H       1.425025    1.877555    0.308052
H       0.006126    1.914826   -0.759090
H      -0.654454   -1.080975   -3.443702
H       0.594694   -0.048826   -4.230702
H       0.115367   -3.324770   -2.713413
H       1.845806   -3.383275   -2.326078
