19

C      -0.193672    1.519643    0.143048
C       0.077144    0.022556    0.050433
C       0.673232   -0.553758   -1.241452
C       2.122283   -0.135676   -1.407065
C       1.794701   -1.231401   -0.452684
O       2.400091   -2.463029   -0.576697
C       1.238569   -0.653393    0.883190
C       2.245233    0.140355    1.667232
O       2.527054    1.299154    1.472666
H       0.686954    2.114811   -0.100129
H      -1.000839    1.789970   -0.547225
H      -0.509848    1.800857    1.152857
H      -0.844095   -0.517537    0.294026
H       0.100007   -0.929750   -2.080613
H       2.583015   -0.493842   -2.321756
H       2.480450    0.828966   -1.060842
H       1.775452   -3.141926   -0.296379
H       0.854227   -1.461342    1.515551
H       2.788374   -0.445688    2.444940
