21

C       0.010003    1.533878    0.121216
C       0.109418    0.011588    0.034966
C       0.999276   -0.544973   -1.117660
C       1.930030   -1.429021   -0.290750
C       2.326900   -0.439497    0.925991
C       0.805570   -0.647534    1.269104
C      -0.267213   -1.306549    2.183405
O      -0.352392   -2.417354    1.201931
C       1.035135   -2.054055    0.842180
H       0.992147    2.008485    0.219421
H      -0.463359    1.943649   -0.777605
H      -0.594624    1.841914    0.981825
H      -0.897920   -0.399828   -0.059452
H       0.426613   -1.112966   -1.855851
H       1.548377    0.239331   -1.649377
H       2.695827   -2.008712   -0.809823
H       3.017177   -0.894264    1.636731
H       2.676869    0.554716    0.638542
H       0.095362   -1.677622    3.148661
H      -1.229985   -0.800689    2.298683
H       1.684750   -2.626307    1.516126
