18

C      -0.189081    1.699105    0.244147
C       0.029927    0.200590    0.080095
C      -1.294041   -0.554620   -0.225985
C      -1.804478   -0.253619   -1.557116
C      -2.182442   -0.002808   -2.670786
N       1.163777   -0.163712   -0.821129
C       1.793989   -1.063235    0.178377
C       0.798561   -0.517892    1.213177
O       0.664142   -0.593522    2.397097
H       0.765709    2.205317    0.402500
H      -0.655773    2.116574   -0.653268
H      -0.840221    1.898026    1.101454
H      -1.131856   -1.636814   -0.137436
H      -2.036292   -0.292034    0.537023
H      -2.538392    0.217531   -3.646848
H       0.873284   -0.612623   -1.682782
H       1.673217   -2.142707    0.009680
H       2.852371   -0.860131    0.374649
