16

C       0.145726    1.569177   -0.007807
N      -0.003542    0.113023   -0.028160
C      -1.145685   -0.415935    0.772586
C      -0.411925   -1.754010    1.049365
O      -0.642075   -1.749541    2.471890
C      -0.420733   -0.339667    2.172408
C       0.682633   -0.611198    1.084332
C       2.159370   -0.765167    1.203321
O       2.753702   -0.786318    2.251329
H       1.133106    1.839083   -0.394404
H      -0.603621    2.011189   -0.671590
H       0.030726    2.020467    0.991627
H      -2.193248   -0.241713    0.525181
H      -0.409442   -2.691795    0.496986
H      -0.463594    0.368746    2.997650
H       2.680040   -0.881539    0.226341
