21

C      -0.713697    1.116570    0.321182
C       0.065051   -0.158783    0.094401
C       1.496060   -0.096137   -0.364931
O       2.100807    1.157392   -0.445401
C       1.185124   -0.669803    1.007116
C       1.723842    0.019924    2.233025
O       3.051060    0.522926    2.080581
C       0.905827    0.853914    3.172897
C       1.400641   -0.508226    3.608398
H      -0.062999    1.927674    0.650150
H      -1.179852    1.432234   -0.618632
H      -1.514500    0.982142    1.055847
H      -0.522912   -0.962921   -0.341572
H       1.821403   -0.792536   -1.137663
H       2.723384    1.213673    0.294986
H       1.243703   -1.754540    1.068753
H       3.637120   -0.236441    1.979506
H       1.398248    1.722024    3.595568
H      -0.149428    0.976151    2.971502
H       0.680863   -1.315848    3.689774
H       2.213193   -0.539470    4.325674
