17

C       0.294875    1.414865    0.080886
C       0.128711   -0.059758   -0.008157
C      -0.084133   -0.901397   -1.024101
C      -0.148997   -2.260174   -0.309225
C      -1.093500   -1.943371    0.886815
C       0.175933   -1.064859    1.179522
O       0.977464   -2.159417    0.632644
C       0.544605   -0.634504    2.564879
O       0.126768    0.370723    3.083531
H       1.286537    1.680004    0.467789
H       0.173827    1.883039   -0.899656
H      -0.429455    1.851342    0.776266
H      -0.193365   -0.709265   -2.081373
H      -0.179881   -3.187717   -0.878200
H      -2.039496   -1.434095    0.698798
H      -1.196635   -2.776690    1.586372
H       1.224799   -1.338292    3.092046
