19

C       0.546011    1.499449   -0.132516
C       0.128625    0.024569   -0.174577
N       0.772716   -0.661276   -1.286020
C       1.857785   -1.310260   -1.163627
C       2.706821   -1.500586    0.073320
O       2.644393   -0.820291    1.066769
N       2.381810   -2.055962   -2.238191
C       2.141744   -1.614846   -3.594461
C       3.513852   -1.527366   -3.010537
H       1.603810    1.587299    0.128054
H       0.380597    1.977460   -1.102613
H      -0.039349    2.034392    0.621391
H       0.339490   -0.438943    0.794304
H      -0.950822   -0.035578   -0.354953
H       3.427158   -2.341747   -0.014185
H       1.911971   -2.401994   -4.306320
H       1.573694   -0.696774   -3.710940
H       3.881923   -0.537286   -2.751778
H       4.276952   -2.251196   -3.279978
