18

C       0.013192    1.523219   -0.347075
C       0.003049    0.047284    0.005482
C       1.252236   -0.766872   -0.057345
C       0.636940   -0.465635    1.305307
C       1.355791    0.427055    2.244572
O       1.350354    0.288089    3.442208
N      -1.199677   -0.648000   -0.378090
C      -2.417621   -0.399270    0.185833
O      -2.615282    0.369067    1.099921
H       0.963304    1.995564   -0.087986
H      -0.142274    1.648248   -1.423871
H      -0.790511    2.038286    0.183674
H       1.200447   -1.794661   -0.399599
H       2.171233   -0.250104   -0.315134
H       0.103831   -1.271701    1.794942
H       1.942561    1.245387    1.767756
H      -1.167199   -1.247833   -1.188342
H      -3.218452   -0.999514   -0.291304
