22

C       0.009060    1.466706   -0.184553
N       0.026404    0.022436   -0.011223
C      -0.083315   -0.548490    1.327835
C      -1.489797   -0.951040    1.757777
C      -2.530488    0.152090    1.759735
C      -1.947924   -2.349964    1.419343
C      -1.570183   -2.001860    2.840053
C       0.249106   -0.779065   -1.092214
O       0.366756   -0.406927   -2.241456
H       0.813348    1.934945    0.396137
H       0.161486    1.672316   -1.244249
H      -0.943636    1.901381    0.133194
H       0.567923   -1.428576    1.383365
H       0.323348    0.186849    2.033457
H      -2.713415    0.530043    0.748534
H      -3.484936   -0.214501    2.149563
H      -2.218827    0.995727    2.387324
H      -2.997416   -2.499237    1.189542
H      -1.279545   -2.995949    0.859705
H      -0.645013   -2.409603    3.235087
H      -2.361725   -1.913113    3.576332
H       0.318874   -1.845465   -0.800246
