17

O      -0.354561    0.219944   -0.253872
C       0.060211    1.239013    0.228208
C       1.427855    1.830681   -0.050513
O       2.305066    0.961305   -0.765484
C       2.347790    1.849104   -1.901124
C       1.467563    2.890556   -1.190742
C       0.230535    3.536904   -1.843807
O       0.720046    4.862631   -1.563513
C       1.915730    4.342334   -0.951846
H      -0.557104    1.856584    0.922894
H       1.861395    2.181067    0.899546
H       3.369680    2.172836   -2.134272
H       1.897448    1.393431   -2.791761
H       0.134999    3.348418   -2.921093
H      -0.737589    3.343236   -1.366189
H       2.007794    4.642553    0.100165
H       2.824345    4.643582   -1.490215
