24

C      -0.020003    1.562892   -0.112260
C       0.032223    0.034462   -0.039899
C       0.687661   -0.486981    1.244057
C       0.738517   -2.017809    1.314754
C       1.467213   -2.584171    2.545833
C       0.768412   -2.241223    3.868232
C       1.634829   -4.098203    2.401818
O       2.439165   -4.571777    3.473668
H       0.985769    1.995714   -0.069154
H      -0.489535    1.904684   -1.040093
H      -0.593091    1.979715    0.723577
H      -0.985467   -0.371162   -0.116870
H       0.578560   -0.355607   -0.909106
H       1.708672   -0.086483    1.317528
H       0.142881   -0.088383    2.109006
H      -0.286846   -2.415077    1.288266
H       1.231397   -2.392572    0.406655
H       2.481376   -2.160305    2.571494
H      -0.273669   -2.585497    3.857192
H       1.276399   -2.731227    4.701728
H       0.761645   -1.164284    4.057491
H       0.642101   -4.579767    2.408556
H       2.103094   -4.325899    1.430599
H       2.476292   -5.530809    3.421453
