17

N       0.494331    1.330534    0.459605
C       0.248903    0.019684    0.132366
N      -0.975576   -0.401764   -0.115401
O      -0.857482   -1.784185   -0.332528
C       0.427199   -2.124096   -0.206689
C       1.210826   -1.053295    0.079400
C       2.706867   -1.040253    0.218968
C       3.273032   -0.271583    1.415281
O       3.317705    1.117152    1.076470
H       1.460095    1.622184    0.398517
H      -0.197769    1.991015    0.142387
H       0.656943   -3.169621   -0.354042
H       3.053124   -2.077438    0.283149
H       3.179572   -0.615802   -0.677446
H       2.655239   -0.441472    2.307130
H       4.289550   -0.631434    1.629095
H       3.503316    1.618262    1.876545
