17

C      -0.248411    1.516127   -0.086197
C      -0.004395    0.047142    0.011808
N       0.029882   -0.728385   -1.038004
O       0.271878   -1.988609   -0.572582
N       0.390235   -1.997088    0.790663
C       0.224654   -0.758798    1.176572
C       0.276638   -0.330181    2.584549
C      -0.244259   -1.244026    3.679938
C       1.228674   -1.008594    3.553890
H       0.593210    2.083408    0.324801
H      -0.383663    1.803201   -1.130186
H      -1.144374    1.804704    0.473282
H       0.118540    0.733172    2.724590
H      -0.778019   -0.782088    4.502738
H      -0.632729   -2.203722    3.359636
H       1.836327   -1.809136    3.148422
H       1.721754   -0.382563    4.288908
