17

N       0.044588   -1.150008    0.041306
C       0.050132    0.004598    0.018479
C      -0.001889    1.469981    0.013809
C      -0.828381    1.997443    1.207743
N      -0.638020    3.432826    1.450223
C       0.558292    3.825922    2.201580
C       0.455897    4.130425    0.754040
C       1.314476    3.365288   -0.233324
O       1.322370    1.973444    0.050742
H      -0.484025    1.784408   -0.927067
H      -1.889318    1.812264    1.006801
H      -0.561140    1.435238    2.107620
H       0.406219    4.604781    2.943772
H       1.252920    3.039489    2.489488
H       0.204831    5.141595    0.437952
H       0.948514    3.531794   -1.259777
H       2.356415    3.695013   -0.188035
