17

N       0.093932    1.361680    0.144418
C      -0.005183   -0.020662    0.027284
C      -1.183314   -0.652596    0.276722
C      -1.602081   -2.028140   -0.036671
O      -2.783131   -2.309886   -0.192966
N      -0.629962   -3.000555   -0.157738
C       0.693237   -2.901880    0.436919
C       1.567482   -1.923514   -0.305022
C       1.222638   -0.645135   -0.477365
H       0.999130    1.719160    0.411436
H      -0.664232    1.815598    0.632308
H      -2.023966   -0.046602    0.603136
H      -1.017283   -3.921233   -0.301550
H       0.623642   -2.597223    1.493886
H       1.141299   -3.897551    0.417592
H       2.506187   -2.281554   -0.716997
H       1.892174    0.022504   -1.014550
