16

C       0.015877    1.438381    0.020330
N       0.050869   -0.006459    0.045339
C       0.037191   -0.764420   -1.093275
O      -0.002347   -0.433849   -2.249666
O       0.077627   -2.091485   -0.666700
C       0.097077   -2.089463    0.706583
O       0.192371   -3.277313    1.323825
C       0.072464   -0.843081    1.193062
C       0.078246   -0.339352    2.591086
H       0.901040    1.866632    0.502508
H      -0.001506    1.740711   -1.027650
H      -0.879483    1.825166    0.518936
H      -0.229250   -3.945594    0.769608
H       0.054600   -1.187876    3.278276
H       0.975221    0.250136    2.817524
H      -0.792279    0.292413    2.804844
