23

C       0.030113    1.584303    0.243336
C       0.001131    0.061539    0.028610
C       0.841432   -0.661207    1.091653
C      -1.407752   -0.455683   -0.002132
C      -2.436771   -0.747903    1.070540
C      -3.492228    0.111296    0.381261
C      -2.667661   -0.105319   -0.916546
C      -2.814907   -1.622565   -1.210770
C      -2.011986   -1.840725    0.067702
H       1.056154    1.965500    0.207768
H      -0.548904    2.105974   -0.525231
H      -0.393602    1.846568    1.219245
H       0.456410   -0.144102   -0.952259
H       0.851338   -1.742950    0.927311
H       1.877135   -0.307574    1.071272
H       0.445733   -0.474751    2.096456
H      -2.270205   -0.885012    2.131951
H      -4.535634   -0.227621    0.375384
H      -3.446974    1.148937    0.723794
H      -2.695848    0.624584   -1.723967
H      -3.833012   -2.025259   -1.278886
H      -2.243742   -1.922655   -2.094114
H      -1.540812   -2.751282    0.417482
