16

C      -0.055996    1.523566    0.001337
C      -0.010558    0.030979   -0.074480
C       0.819148   -0.820307   -1.050184
C      -0.109724   -2.016100   -0.693599
O       0.475278   -2.743436    0.392807
C       0.519922   -1.881744    1.457659
O       1.135423   -2.091802    2.454258
N      -0.307060   -0.734180    1.192949
C      -1.077309   -1.011047   -0.021746
H       0.896390    1.920398    0.368731
H      -0.241056    1.952289   -0.989161
H      -0.844990    1.850218    0.682491
H       0.660530   -0.477176   -2.076196
H       1.887993   -0.959936   -0.863485
H      -0.432326   -2.712656   -1.462030
H      -2.159644   -0.970298   -0.005449
