16

C       2.596298    0.808668   -0.477877
N       1.916731   -0.473165   -0.433907
C       1.166837   -0.794505    0.518504
C       0.496482   -2.149679    0.601696
C      -0.958476   -2.043485    0.649887
C      -2.153692   -1.927032    0.687872
O       0.916714   -0.000904    1.645390
C      -0.066459    0.945454    1.572237
O      -0.325893    1.652515    2.493185
H       2.500561    1.411770    0.431406
H       3.657525    0.625981   -0.673685
H       2.212849    1.380274   -1.329924
H       0.820387   -2.733850   -0.263128
H       0.856850   -2.657995    1.505811
H      -3.211744   -1.840546    0.725544
H      -0.559405    0.965664    0.586660
