16

O      -0.577159    0.706823    0.790711
C       0.089285    0.958662   -0.180268
C       1.348056    1.803164   -0.154592
C       1.289000    2.965223   -1.149445
C       2.572286    3.812183   -1.221421
O       2.620112    4.201712   -2.583619
C       2.143693    3.086869   -3.288910
O       1.145983    2.474027   -2.486532
H      -0.184433    0.576587   -1.186677
H       1.499070    2.172123    0.864764
H       2.195132    1.158907   -0.427523
H       0.425909    3.605541   -0.921025
H       2.544087    4.710484   -0.602461
H       3.454031    3.210165   -0.948478
H       1.708201    3.426651   -4.233857
H       2.954777    2.362873   -3.483625
