11

O       0.036077    1.311188   -0.145209
C      -0.037149   -0.011341   -0.035781
C      -1.174739   -0.736957    0.046830
C      -1.023324   -2.152842    0.159291
N       0.086323   -2.815219    0.190596
O       1.259966   -2.045054    0.103612
C       1.263392   -0.697346   -0.006595
O       2.302540   -0.077336   -0.078233
H       0.991048    1.514614   -0.181495
H      -2.155628   -0.279255    0.029640
H      -1.898074   -2.793016    0.229537
