18

C       0.000494    1.564129    0.129786
C       0.020945    0.050896    0.064894
C      -1.254857   -0.568338   -0.495917
O      -1.520573   -0.172952   -1.832915
C       1.264641   -0.744884   -0.225407
N       2.479058   -0.163866    0.350158
C       1.931657   -0.143499    1.647663
O       2.356325    0.277853    2.685486
C       0.653370   -0.819865    1.166641
H       0.931676    1.978146    0.521519
H      -0.154731    1.986053   -0.869289
H      -0.810873    1.912408    0.778917
H      -1.157646   -1.659311   -0.518624
H      -2.100622   -0.331626    0.167351
H      -1.882482    0.717647   -1.817966
H       1.329894   -1.523578   -0.974447
H       2.991163    0.613537   -0.051211
H       0.119964   -1.627612    1.648979
