17

O       0.290200    1.412781   -0.068821
C       0.189988    0.012302   -0.083888
C       0.710482   -0.629249    1.213833
C      -0.074360   -1.647026    1.540552
C      -0.893358   -2.244438    2.655439
O      -2.095742   -1.982355    1.841193
C      -1.259108   -1.796988    0.643727
C      -1.323489   -0.452997   -0.108769
O      -2.092803    0.488586    0.618703
H      -0.476968    1.710142    0.444025
H       0.720955   -0.337596   -0.977752
H       1.500813   -0.167975    1.793185
H      -0.784865   -3.322186    2.823830
H      -0.909351   -1.715667    3.612950
H      -1.334512   -2.674538   -0.007348
H      -1.719713   -0.520329   -1.127381
H      -2.392393    0.031997    1.419719
