21

C       0.003754    1.565561    0.105718
O       1.374667    1.933611   -0.114318
C       2.219361    0.780209   -0.003093
C       1.352426   -0.268156    0.694033
C       1.661670   -1.733804    0.604546
C       0.672844   -2.627831    0.534153
C      -0.800099   -2.281852    0.507870
C      -1.102836   -0.779797    0.730700
C      -0.009858    0.041658    0.060542
H      -0.332092    1.944970    1.083657
H      -0.612205    2.033381   -0.670292
H       2.534996    0.439728   -1.001704
H       3.114557    1.061327    0.561973
H       1.304148    0.020877    1.756816
H       2.698298   -2.060610    0.635042
H       0.911143   -3.688186    0.482557
H      -1.212563   -2.601730   -0.460555
H      -1.330052   -2.886486    1.255077
H      -2.097896   -0.539532    0.340528
H      -1.120247   -0.555702    1.804933
H       0.048972   -0.261722   -0.995196
