16

O       0.657859    2.383794    1.135071
C       0.204967    1.803640    0.169892
N       0.871282    0.886887   -0.593343
C       2.187038    0.455830   -0.426982
N       2.744927   -0.346682   -1.266389
C       4.110743   -0.474354   -0.812649
C       4.970854    0.772894   -0.801127
C       4.257030    0.360498    0.465030
N       2.921345    0.854041    0.655426
H      -0.822919    1.967608   -0.199971
H       0.410931    0.492983   -1.400965
H       4.579670   -1.440685   -0.954427
H       6.044050    0.617736   -0.815369
H       4.621078    1.647087   -1.340676
H       4.798785    0.064016    1.355307
H       2.634466    1.632363    1.229345
