21

C      -0.182729    1.470917   -0.013623
C       0.055189   -0.042053   -0.003489
C       0.939631   -0.506275   -1.156104
C       2.367636   -0.608317   -0.635310
C       2.343167   -0.229923    0.838666
C       0.878951   -0.544516    1.207315
O       0.706294   -1.952869    1.355323
C       1.100390   -2.716374    0.214599
C       1.577327   -1.857453   -0.942725
H       0.758583    2.029951   -0.016575
H      -0.742442    1.769238   -0.906504
H      -0.760792    1.785880    0.861843
H      -0.913118   -0.556416    0.004893
H       0.729889   -0.167745   -2.165132
H       3.217124   -0.346112   -1.255230
H       3.031021   -0.810968    1.461003
H       2.574399    0.831591    0.980340
H       0.559509   -0.112615    2.158379
H       1.898376   -3.410157    0.518921
H       0.243914   -3.330552   -0.099292
H       1.858550   -2.418459   -1.828980
