16

C       0.017992    1.595164   -0.036675
C       0.080191    0.078478    0.034076
N       0.685571   -0.628699   -1.125072
C      -0.206131   -1.254032   -2.078165
C       1.507304   -1.511886   -0.268211
C       1.153899   -0.591369    0.908290
O       1.560643   -0.429939    2.019021
H       0.995211    2.007280   -0.301451
H      -0.708273    1.922695   -0.787438
H      -0.285293    2.003765    0.932186
H      -0.909066   -0.335301    0.307047
H      -0.813445   -0.490592   -2.574708
H       0.374196   -1.770199   -2.849581
H      -0.890997   -1.990235   -1.614630
H       1.091022   -2.523554   -0.120528
H       2.561849   -1.600360   -0.549951
