15

N       0.165828    1.549360   -0.245099
C      -0.033942    0.130382    0.025348
C       0.129170   -0.294401    1.521425
C      -1.183979   -1.112339    1.411236
C      -1.525851   -0.329075    0.116963
C       0.746314   -0.738403   -0.872669
N       1.374781   -1.385860   -1.597246
H       1.152372    1.782745   -0.156953
H      -0.087057    1.756778   -1.208704
H       1.044882   -0.821458    1.793062
H       0.014658    0.593517    2.147011
H      -0.994348   -2.169894    1.213883
H      -1.888836   -1.032528    2.239870
H      -2.145967    0.548253    0.313487
H      -1.929682   -0.883775   -0.731172
