20

C      -0.078562    1.533745   -0.079318
C       0.003600    0.002720   -0.022591
C       0.668088   -0.461715    1.283373
O      -1.301143   -0.565421   -0.143049
C       0.800179   -0.544129   -1.219676
C       0.703261   -2.079691   -1.447066
N       0.146644   -2.236872   -2.801387
C      -0.053051   -1.062512   -3.225402
O       0.274897    0.004864   -2.457863
H       0.916288    1.989160   -0.040493
H      -0.571430    1.849198   -1.000028
H      -0.649514    1.912301    0.776618
H       0.095585   -0.098244    2.143841
H       0.704120   -1.552949    1.340852
H       1.687286   -0.072536    1.376030
H      -1.850386   -0.202272    0.558828
H       1.835822   -0.199003   -1.133600
H       1.677537   -2.573624   -1.384891
H       0.033221   -2.552682   -0.724489
H      -0.472819   -0.802955   -4.191004
