22

C      -0.885995    0.977464   -0.113115
C       0.166342   -0.116018    0.002604
C       1.527391    0.079723   -0.720083
C       2.236138   -0.576589    0.501093
C       2.550635   -2.056414    0.302470
O       3.362143    0.107015    1.024067
C       0.946281   -0.327062    1.347209
C       1.019618    0.879490    2.278857
H      -0.490265    1.954127    0.182276
H      -1.239482    1.063882   -1.146841
H      -1.757714    0.765983    0.516469
H      -0.279160   -1.068429   -0.305085
H       1.660832   -0.386892   -1.700969
H       1.798628    1.137422   -0.788646
H       3.351448   -2.188773   -0.436809
H       2.876865   -2.503986    1.246581
H       1.677030   -2.608154   -0.058898
H       4.113246   -0.072063    0.448410
H       0.621762   -1.201977    1.921437
H       1.363081    1.780175    1.763082
H       0.038008    1.089354    2.716549
H       1.723112    0.689208    3.093820
