16

C      -0.050645    1.455739    0.018618
N      -0.000816    0.008266   -0.005602
C       0.035509   -0.785450   -1.144471
C       0.042247   -2.095137   -0.763082
C       0.031060   -2.116836    0.670711
C       0.050264   -3.225232    1.541994
N       0.068205   -4.110624    2.292714
C       0.006480   -0.791403    1.099216
N      -0.096139   -0.259364    2.382677
H       0.948601    1.898981    0.106012
H      -0.510202    1.814931   -0.903977
H      -0.657295    1.780684    0.867340
H       0.052887   -0.330157   -2.120931
H       0.058836   -2.956791   -1.410272
H      -0.168893   -0.995750    3.074797
H       0.667066    0.359311    2.634956
