18

C      -0.018577    1.502806   -0.007961
C      -0.080522    0.004749    0.096872
C      -1.318491   -0.748875   -0.364848
C      -1.059988   -2.211136    0.102886
C      -0.167291   -2.082992    1.374256
C       0.598454   -0.802392    1.121167
O       1.133162   -0.712203   -0.209193
C      -2.281020   -2.975599    0.324250
N      -3.253309   -3.573551    0.507554
H       0.923217    1.876729    0.400561
H      -0.085781    1.820496   -1.053996
H      -0.847770    1.965752    0.537141
H      -2.204871   -0.332990    0.126334
H      -1.477330   -0.691331   -1.445307
H      -0.477664   -2.717627   -0.670469
H      -0.779236   -1.975096    2.276307
H       0.475658   -2.957113    1.506171
H       1.211863   -0.363315    1.904196
