17

C      -0.511963    1.555175    0.278541
C      -0.159200    0.106777    0.114625
C       0.208236   -0.536075   -1.051223
C       0.334921   -0.006532   -2.452892
C       1.327549   -0.739888   -3.241847
N       2.091046   -1.363876   -3.844674
N       0.409766   -1.865208   -0.761035
C       0.193793   -2.084162    0.573334
C      -0.166235   -0.885837    1.140095
H      -0.097269    2.173173   -0.524821
H      -1.596858    1.719143    0.283173
H      -0.124670    1.948768    1.223739
H      -0.618331   -0.050166   -2.999626
H       0.620725    1.050379   -2.425157
H       0.760916   -2.543890   -1.416251
H       0.326705   -3.063509    1.003606
H      -0.408693   -0.723498    2.179679
