23

C       0.227951    1.536310    0.214482
C       0.058001    0.031210   -0.010406
C       0.611156   -0.473319   -1.366828
C      -0.154731    0.102561   -2.560884
O       1.962623   -0.047897   -1.516909
C       0.580603   -2.019293   -1.401846
C      -0.716348   -2.727436   -1.076159
C       1.587635   -2.714479   -2.215299
O       1.747474   -2.605300   -0.788192
H       1.269621    1.830071    0.065667
H      -0.388798    2.124043   -0.472550
H      -0.067265    1.807525    1.232614
H       0.582338   -0.515415    0.784599
H      -1.000986   -0.237459    0.076724
H      -0.027326    1.186770   -2.600333
H       0.230084   -0.315001   -3.495231
H      -1.224092   -0.115794   -2.492870
H       2.481868   -0.632999   -0.946543
H      -1.518317   -2.408682   -1.749291
H      -0.590607   -3.807812   -1.179714
H      -1.034040   -2.522624   -0.050368
H       1.380533   -3.720931   -2.574985
H       2.298791   -2.136971   -2.799118
