17

C       0.060135    1.427639    0.960115
C      -0.189321    0.446931   -0.180873
O       0.834370   -0.563083   -0.252233
C      -1.539071   -0.206999   -0.128603
N      -2.528872    0.146250    0.693281
N      -3.502013   -0.692691    0.389487
N      -3.240962   -1.594518   -0.567957
C      -1.990666   -1.297185   -0.917115
N      -1.300654   -1.937562   -1.930190
H       1.063613    1.850430    0.868251
H      -0.674243    2.236836    0.943418
H      -0.027343    0.925977    1.929715
H      -0.084229    0.973477   -1.138044
H       0.811601   -1.046763    0.582131
H      -4.393967   -0.662849    0.852703
H      -1.666318   -2.851648   -2.156356
H      -0.301983   -1.938021   -1.767242
