13

O      -0.000160    0.024183   -0.157705
C      -0.013553    1.202270    0.042390
C      -1.134022    2.228025    0.273892
C      -0.032044    3.246209    0.741701
C       1.084326    2.258313    0.244024
C      -0.058009    4.569581    0.155337
C      -0.079727    5.660200   -0.350738
H      -1.613053    2.525781   -0.663569
H      -1.906304    1.954480    0.996142
H      -0.018329    3.317990    1.832980
H       1.882932    2.006209    0.945140
H       1.529664    2.568690   -0.705872
H      -0.098837    6.626574   -0.790420
