17

C       0.158642    1.635845    0.084425
C       0.122480    0.117580    0.040543
N       0.709261   -0.645959   -1.124060
C       2.036482   -0.136889   -1.619002
C       2.812586   -1.204334   -0.802973
C       1.448651   -1.582679   -0.182942
C       1.000148   -0.709640    1.003344
O       1.282191   -0.647145    2.163421
H       1.176241    2.033601    0.110715
H      -0.358834    2.059015   -0.782242
H      -0.350937    1.981505    0.988383
H      -0.919487   -0.217452    0.142676
H       2.118064   -0.229923   -2.704982
H       2.258174    0.899745   -1.350413
H       3.244632   -2.000970   -1.410929
H       3.570720   -0.844823   -0.104293
H       1.155850   -2.635734   -0.150898
