20

C      -0.505465    1.548250   -0.006800
C      -0.099847    0.081586   -0.026539
C      -1.339472   -0.811426   -0.063198
C       0.983169   -0.416019   -1.035254
C       1.717959   -0.977922    0.177480
C       2.126661    0.095232    1.115936
C       2.585587    1.391961    0.700524
C       3.065926    2.452012    0.393191
N       0.720989   -0.413168    1.164633
H       0.351011    2.220269   -0.026851
H      -1.136662    1.770233   -0.874648
H      -1.090172    1.760630    0.894986
H      -1.913607   -0.629429   -0.978026
H      -1.063300   -1.869533   -0.032140
H      -1.982292   -0.606461    0.798340
H       0.615351   -1.170546   -1.732607
H       1.532416    0.349501   -1.589657
H       2.111056   -1.985650    0.272791
H       2.643241   -0.261309    2.005269
H       3.467858    3.396227    0.119673
