18

O       0.272373    1.216703   -0.471026
C       0.016779   -0.033667    0.165452
C      -1.418381   -0.463889    0.121803
C      -2.094797   -0.965774   -1.143682
C      -1.973097   -1.918516   -0.000544
O      -1.275548   -3.097035   -0.147084
C      -2.975917   -1.617231    1.081336
N      -2.203503   -1.193974    2.286470
C      -2.461400   -0.222039    1.190022
H      -0.231170    1.889436   -0.002115
H       0.631076   -0.763225   -0.373600
H       0.358972   -0.025090    1.211203
H      -3.061140   -0.577301   -1.453949
H      -1.410670   -1.166586   -1.962414
H      -0.926015   -3.329592    0.722153
H      -3.994160   -1.977016    1.175423
H      -2.884735   -1.006139    3.024657
H      -3.048684    0.671571    1.370343
