19

C       0.025755    1.483066   -0.139517
C      -0.080677   -0.025992    0.068842
O       0.538883   -0.446869    1.281471
C      -1.529968   -0.550080   -0.004251
C      -2.162026   -0.629558   -1.407726
O      -2.202428   -2.071509   -1.360579
C      -1.623602   -2.104052   -0.045197
C      -2.403164    0.053163    1.067893
O      -3.448810    0.621908    0.877874
H       1.074255    1.792547   -0.118293
H      -0.401236    1.780807   -1.101902
H      -0.513363    2.033059    0.641934
H       0.477159   -0.534993   -0.727415
H       0.406478    0.235556    1.946961
H      -3.159045   -0.184335   -1.479517
H      -1.532875   -0.264324   -2.229266
H      -0.654907   -2.616632   -0.016803
H      -2.293617   -2.565647    0.691439
H      -2.011807   -0.086339    2.101408
