17

C      -0.050991    1.485208   -0.165927
N      -0.007341    0.046262    0.036309
C      -1.058162   -0.616808    0.178969
C      -1.168043   -2.105217    0.408857
C      -2.612372   -2.423638    0.008573
N      -3.222323   -3.523195    0.733142
C      -3.302523   -1.059332    0.161307
O      -4.467728   -0.826052    0.267598
O      -2.349161   -0.066420    0.164055
H       0.531485    1.729793   -1.060134
H      -1.059824    1.897601   -0.269416
H       0.446357    1.973811    0.679203
H      -0.407627   -2.651682   -0.147149
H      -1.019063   -2.319362    1.474660
H      -2.651909   -2.661293   -1.063155
H      -3.252222   -3.304711    1.726245
H      -4.192231   -3.614157    0.442084
