18

O       0.194486    1.443706    0.013631
C       0.071366    0.032409   -0.019126
C       0.513803   -0.621343    1.329286
N      -0.681665   -0.612665    2.206579
C      -1.665323   -0.525872    1.409645
O      -2.962872   -0.358454    1.711075
C      -3.662760   -0.014010    0.485309
C      -2.580766    0.403962   -0.539599
C      -1.397453   -0.445650   -0.072313
H      -0.095732    1.744946    0.882676
H       0.665059   -0.299189   -0.874117
H       0.873577   -1.648093    1.177795
H       1.329544   -0.053875    1.788553
H      -4.221862   -0.895514    0.150649
H      -4.372190    0.779432    0.729150
H      -2.901596    0.216915   -1.566093
H      -2.336579    1.465413   -0.441376
H      -1.437060   -1.453168   -0.508106
