17

C       0.025444    1.496295   -0.019650
C      -0.010392    0.002960    0.000342
C      -1.097192   -0.774434    0.106831
C      -0.751208   -2.210547    0.098686
C      -1.478116   -3.314569    0.753632
O      -1.527466   -3.156220   -0.656782
C       0.762210   -2.266085   -0.069616
O       1.422975   -3.266008   -0.157189
C       1.258976   -0.816267   -0.101100
H       0.625096    1.888822    0.811385
H       0.494969    1.863890   -0.940909
H      -0.977877    1.924572    0.049214
H      -2.117521   -0.418088    0.186383
H      -0.906680   -4.171808    1.106782
H      -2.400928   -3.094150    1.289647
H       1.830268   -0.619289   -1.017451
H       1.951438   -0.641212    0.732812
