17

O       0.175048    1.455987   -0.089182
C       0.080582    0.059931   -0.004605
C       0.190313   -0.584165    1.477357
C      -1.336283   -0.579518    1.399787
O      -2.631493   -1.344406    1.470927
C      -2.802419   -0.210993    0.434170
C      -2.199168    0.736643    1.473550
O      -2.911799    0.980565    2.636440
C      -1.375690   -0.561679   -0.095724
H       1.081251    1.711595    0.112977
H       0.754184   -0.425650   -0.721341
H       0.647089   -1.575488    1.426943
H       0.663809    0.014599    2.260808
H      -3.773827   -0.219259   -0.067313
H      -1.742840    1.658345    1.122476
H      -3.279179    0.118862    2.885396
H      -1.335525   -1.550393   -0.552811
