23

C      -0.128815    1.519007    0.020593
C       0.066357    0.006390   -0.058841
C       1.035472   -0.468421   -1.173743
C       1.638692   -1.720358   -0.589241
C       1.418763   -1.833878    0.725698
C       0.625515   -0.642723    1.233639
C       1.917018   -2.918585    1.592916
C       2.281821   -2.673799    3.046458
C       1.073813   -3.500524    2.715202
H       0.821071    2.027605    0.222927
H      -0.525968    1.918623   -0.918861
H      -0.828455    1.791463    0.818418
H      -0.906617   -0.460342   -0.258382
H       0.521094   -0.635214   -2.127790
H       1.812175    0.286617   -1.374365
H       2.222859   -2.422127   -1.176059
H       1.288938    0.053539    1.769362
H      -0.170454   -0.910025    1.938550
H       2.544039   -3.638125    1.074243
H       3.163613   -3.171192    3.434731
H       2.120863   -1.678858    3.446008
H       0.095201   -3.069388    2.893848
H       1.120107   -4.573083    2.867843
