17

C       0.085724    1.507320   -0.070781
C      -0.085626    0.033942    0.044092
C      -1.150821   -0.800160    0.070650
C      -2.643701   -0.948178    0.039719
C      -2.787918   -2.487168   -0.210189
N      -1.521748   -3.078382    0.285162
C      -0.563603   -2.085285    0.200592
N       0.741281   -2.083913    0.242249
O       1.054510   -0.696857    0.143071
H       0.721258    1.761836   -0.925170
H      -0.884011    1.992281   -0.199811
H       0.562204    1.917675    0.825912
H      -3.097135   -0.672214    0.999222
H      -3.149778   -0.371771   -0.739003
H      -3.643499   -2.916144    0.317762
H      -2.919949   -2.676596   -1.284958
H      -1.280636   -3.996610   -0.058665
