17

O       0.062730    0.021135    0.316259
C      -0.057392    1.197598    0.114113
C      -1.421537    1.850968   -0.079406
C      -1.570248    2.661816   -1.348031
C      -0.777955    3.655942   -1.750350
C       0.412570    4.189080   -1.049574
C       0.399621    4.412484    0.468923
C       1.238886    3.327921   -0.122797
O       1.079620    1.941587    0.055657
H      -2.124513    1.017575   -0.080785
H      -1.659657    2.446663    0.810582
H      -2.407764    2.383938   -1.980147
H      -1.007029    4.138089   -2.696745
H       0.983841    4.907895   -1.627537
H       0.913918    5.279607    0.868356
H      -0.513826    4.163446    0.990384
H       2.307965    3.506155   -0.136642
