21

C       0.110504    1.542343   -0.047980
C       0.057491    0.017906    0.005215
O       0.713366   -0.464942   -1.162796
C       0.918010   -1.869323   -1.126122
C       1.967385   -2.213508   -0.061751
C       2.124105   -3.721195    0.104391
O       3.247502   -1.723348   -0.479755
C       1.560777   -1.539505    1.233949
C       0.684400   -0.537829    1.259909
H       1.146464    1.889847    0.003875
H      -0.330919    1.899649   -0.981951
H      -0.444617    1.974704    0.789617
H      -1.003390   -0.297468   -0.030557
H      -0.029313   -2.396025   -0.927938
H       1.284303   -2.158060   -2.115227
H       2.411721   -4.178950   -0.846881
H       2.910090   -3.934903    0.834420
H       1.192721   -4.178312    0.450966
H       3.115914   -0.788121   -0.679122
H       2.035388   -1.893957    2.145550
H       0.391690   -0.068577    2.196316
