18

C      -0.216452    1.630023   -0.042210
C       0.037018    0.129188   -0.001561
C       1.095340   -0.575231   -0.906766
C       2.412659    0.124650   -0.520465
C       2.365651   -0.387320    0.932511
O       2.500071   -1.826702    0.714401
C       1.163657   -1.726812    0.215683
C       0.802382   -0.554081    1.147171
H       0.684291    2.217813    0.154219
H      -0.610300    1.937887   -1.017344
H      -0.957453    1.910698    0.714418
H      -0.919332   -0.398000   -0.112972
H       0.899200   -0.785237   -1.956994
H       3.292651   -0.274784   -1.028287
H       2.385563    1.209200   -0.637996
H       3.044592    0.008091    1.686367
H       0.625809   -2.664935    0.089166
H       0.433234   -0.675519    2.164525
