13

C      -0.021314    1.550929    0.008561
C       0.009078    0.052367   -0.030503
C      -0.064875   -0.706595   -1.178605
F      -0.172013   -0.121691   -2.367617
C      -0.027488   -2.101098   -1.099627
N       0.078155   -2.744649    0.053877
N       0.152483   -2.045493    1.189790
C       0.118121   -0.735778    1.124785
F       0.195911   -0.097729    2.286710
H       0.888572    1.943519    0.472839
H      -0.108740    1.962647   -0.997166
H      -0.865052    1.904405    0.609197
H      -0.085119   -2.706208   -1.998068
