19

C      -0.162535    1.534262   -0.007389
C       0.051691    0.023215    0.001445
C       1.020475   -0.546707   -1.089431
C       1.979705   -1.291659   -0.139531
O       1.060041   -1.929620    0.800202
C       0.802561   -0.556199    1.225482
C       2.302513   -0.231054    0.954075
C       3.232074   -0.722740    2.026604
O       4.142902   -0.068354    2.471717
H       0.782803    2.083688    0.047689
H      -0.671234    1.847696   -0.924493
H      -0.782705    1.851316    0.838183
H      -0.917134   -0.481923   -0.056648
H       0.529714   -1.236450   -1.779015
H       1.522268    0.233318   -1.669415
H       2.733397   -1.961988   -0.552862
H       0.348826   -0.471496    2.213640
H       2.582641    0.777392    0.644786
H       3.020328   -1.749726    2.390014
