20

C      -0.076103    1.582055   -0.130975
C       1.395409    1.975455    0.078636
N       2.534715    1.975706   -0.866681
C       2.187179    0.736851   -0.172522
C       1.235616   -0.248912   -0.858909
C       0.005331    0.036142    0.015118
C       0.398253   -0.469835    1.435531
O       1.633222    0.005279    1.980763
C       2.755991    0.135956    1.085793
H      -0.704570    2.060644    0.625562
H      -0.483399    1.852919   -1.112864
H       1.609653    2.564948    0.963557
H       2.244671    1.905917   -1.840459
H       1.065597   -0.002604   -1.912697
H       1.585098   -1.283952   -0.804211
H      -0.914773   -0.484002   -0.280497
H      -0.357647   -0.185686    2.175462
H       0.412949   -1.571532    1.383648
H       3.232454   -0.841924    0.920036
H       3.466919    0.794870    1.590607
