16

O       0.193343    1.348201   -0.151507
C       0.012958   -0.015060    0.101734
C      -1.445780   -0.384602    0.162644
N      -2.347032    0.482792   -0.000380
C      -3.733332    0.048215    0.086504
C      -3.896552   -1.411253   -0.357385
C      -2.876018   -2.299157    0.312836
O      -3.032751   -3.418227    0.691213
O      -1.620524   -1.721012    0.447097
H      -0.698075    1.724308   -0.213346
H       0.488742   -0.631998   -0.677002
H       0.477399   -0.310917    1.055617
H      -4.078084    0.179236    1.121253
H      -4.350584    0.703689   -0.533519
H      -4.890240   -1.811413   -0.150976
H      -3.723973   -1.482405   -1.439289
