17

C       0.197954    1.455396   -0.080151
C       0.079178   -0.030030   -0.032155
N       0.124041   -0.858897   -1.062076
C      -0.045456   -2.083005   -0.481894
N      -0.183890   -2.071252    0.837767
N      -0.106583   -0.735992    1.101080
N      -0.141824   -3.245510   -1.236855
C       1.019681   -3.703720   -1.991718
C       0.548275   -4.444707   -0.784998
H       0.269748    1.882661    0.923660
H       1.086604    1.745236   -0.646833
H      -0.669707    1.896407   -0.580714
H      -0.188114   -0.409634    2.049497
H       0.805278   -4.078349   -2.987805
H       1.934674   -3.124240   -1.903035
H       1.140627   -4.364228    0.122092
H      -0.010270   -5.369429   -0.893046
