19

O       0.055656    1.439366    0.081327
C       0.117991    0.039012    0.030546
C       0.689017   -0.628699    1.302345
C       0.122531   -2.057207    1.242694
C      -1.303758   -1.815337    0.790007
C      -2.411444   -2.765922    0.863580
O      -2.292759   -1.711697    1.837095
C      -1.300238   -0.606913   -0.165537
O      -2.327951    0.311219    0.158168
H      -0.872020    1.641741    0.278687
H       0.746723   -0.241560   -0.825503
H       1.779483   -0.587499    1.346193
H       0.296644   -0.106116    2.182216
H       0.654725   -2.654682    0.491330
H       0.156068   -2.598632    2.190712
H      -3.251336   -2.666688    0.177478
H      -2.246192   -3.767352    1.257261
H      -1.443423   -0.920990   -1.205375
H      -2.712840   -0.009930    0.990132
