11

F      -0.008981    0.024010    0.004352
C      -0.060518    1.348986    0.011534
C      -1.232316    2.018996    0.030172
C      -1.215782    3.450196    0.036995
C      -0.022817    4.073916    0.024433
O       1.149403    3.410432    0.005814
C       1.236913    2.015745   -0.002196
O       2.317120    1.497881   -0.018953
H      -2.164833    1.465840    0.039659
H      -2.131777    4.024207    0.051806
H       0.123017    5.146647    0.027806
