21

C      -0.097467    1.548038    0.013757
C       0.012601    0.050034    0.007501
C       0.105416   -0.668239   -1.131006
C       0.097008   -2.107956   -1.245635
C      -0.555685   -3.001206   -0.449639
C      -0.568648   -4.469710   -0.804803
C      -1.379194   -2.601347    0.678043
C      -1.178224   -1.527360    1.461010
C       0.051883   -0.666879    1.342078
H       0.729056    2.004304    0.575022
H      -0.095701    1.960312   -0.998756
H      -1.021848    1.873952    0.507801
H       0.189459   -0.124251   -2.070789
H       0.572685   -2.508206   -2.139925
H      -0.013155   -4.667485   -1.725120
H      -0.127644   -5.078100   -0.005627
H      -1.595027   -4.832657   -0.942562
H      -2.242494   -3.233726    0.880986
H      -1.920821   -1.266179    2.210510
H       0.948982   -1.300335    1.387041
H       0.109951    0.048745    2.166565
