22

C      -0.062512    1.570144   -0.018551
C       0.086775    0.062534   -0.121338
C       0.776446   -0.634123   -1.313060
C       2.197759   -0.018373   -1.329849
C       2.379684   -0.661673    0.045926
C       3.632452   -0.765470    0.857349
N       1.065510   -0.600069    0.807955
C       1.307253   -1.656000   -0.224150
C       1.151791   -3.122989   -0.008919
H       0.884034    2.095674   -0.166423
H      -0.777994    1.938070   -0.762610
H      -0.438854    1.838843    0.973986
H      -0.882233   -0.412213    0.073384
H       0.252417   -0.860542   -2.241215
H       2.836868   -0.518240   -2.063834
H       2.299966    1.065856   -1.443393
H       3.957489    0.222921    1.202269
H       3.470923   -1.387831    1.741627
H       4.447330   -1.201112    0.268580
H       0.095595   -3.408977    0.054325
H       1.605610   -3.695064   -0.825949
H       1.634742   -3.420935    0.926973
