20

C      -0.213849    1.364432   -0.033257
O       0.157383    0.007233   -0.101452
C       0.697995   -0.507487    1.105867
C      -0.333873   -0.796611    2.182979
C      -0.426770   -2.106482    2.432240
C       0.544904   -2.896613    1.622438
C       1.279616   -1.887364    0.785410
N       1.987745   -2.642925    1.798396
C       2.534088   -2.011855    2.988624
H       0.632232    2.001756    0.270208
H      -0.536435    1.660760   -1.034410
H      -1.044412    1.538801    0.666418
H       1.471327    0.188530    1.477174
H      -0.881851   -0.016158    2.699076
H      -1.087304   -2.560328    3.162851
H       0.294478   -3.899263    1.288998
H       1.569678   -2.056842   -0.247574
H       1.885311   -1.262413    3.463916
H       2.752552   -2.790230    3.726501
H       3.478956   -1.529059    2.718895
