18

C      -0.333154    1.329333   -0.100081
N       0.061868   -0.070151   -0.008659
C       1.464341   -0.375436   -0.209148
C       0.856594   -0.495390    1.160512
C       1.237978    0.420836    2.198694
C       1.520394    1.167678    3.103496
C       1.906623    2.037582    4.179399
C       1.370966    3.408541    4.303615
O       0.909611    2.374981    5.161094
H       0.424930    2.031409    0.277490
H      -0.534143    1.561267   -1.150326
H      -1.255131    1.479967    0.469073
H       1.686707   -1.275519   -0.776278
H       2.156785    0.451348   -0.359936
H       0.592614   -1.490264    1.512360
H       2.889016    1.842798    4.608732
H       1.985741    4.176428    4.771944
H       0.654967    3.761840    3.563955
