15

O       0.094419    0.068383    0.275052
C       0.022232    1.253861    0.089022
C      -1.210458    2.061223   -0.224960
O      -1.311820    3.186233    0.674636
C      -0.768843    3.414507   -0.621961
C       0.747549    3.517731   -0.609811
C       1.193269    2.232805    0.082535
C       2.243172    2.122778    1.109896
O       2.470456    1.687056   -0.225045
H      -2.139301    1.590517   -0.528305
H      -1.368391    4.035321   -1.281912
H       1.138827    3.535846   -1.632988
H       1.085673    4.424436   -0.100560
H       2.774648    3.024053    1.412606
H       2.174678    1.329532    1.852057
