16

C      -0.342062    1.462448    0.096342
C       0.050289   -0.002442   -0.030951
C       0.917185   -0.407780   -1.263833
C       2.006860   -0.915965   -0.277407
N       1.169616   -0.440258    0.825229
C       1.251224   -0.739182    2.140427
O       2.185490   -1.316154    2.660149
H       0.530789    2.110775   -0.028341
H      -1.081237    1.722384   -0.669046
H      -0.785491    1.671153    1.075122
H      -0.835353   -0.639044    0.093144
H       0.479376   -1.170871   -1.907472
H       1.226180    0.441734   -1.875471
H       2.160773   -1.999764   -0.260822
H       2.983199   -0.426099   -0.338025
H       0.363011   -0.383629    2.703918
