17

O      -0.055336    0.006690   -0.191612
C       0.014964    1.164026    0.122726
C       1.305764    1.988648    0.069368
C       1.312641    2.838327   -1.233501
C       1.463044    1.976813   -2.503474
C       1.448058    2.784854   -3.715951
C       1.431548    3.475902   -4.699018
C       1.397659    2.830259    1.255248
C       1.425307    3.524693    2.235947
H      -0.876403    1.742160    0.451717
H       2.139489    1.277184    0.037481
H       0.391367    3.428368   -1.288396
H       2.137166    3.553535   -1.173111
H       2.402375    1.411358   -2.449027
H       0.664830    1.226424   -2.548345
H       1.418201    4.073666   -5.576426
H       1.471365    4.134847    3.104199
