21

C      -0.001015    1.541753    0.116400
C       0.048721    0.049271    0.033774
C      -0.024226   -0.706361   -1.064900
C       0.000780   -2.180103   -0.777065
C      -1.247012   -2.997472   -1.231545
O      -0.459678   -3.819723   -2.111121
C       0.748063   -3.119984   -1.759710
C       0.411251   -2.230898    0.714422
C       0.150538   -0.812653    1.275795
H       0.902970    1.941759    0.593285
H      -0.096976    2.000346   -0.871385
H      -0.847295    1.875348    0.730863
H      -0.138912   -0.322814   -2.074564
H      -1.736241   -3.584742   -0.442488
H      -2.010133   -2.425891   -1.775679
H       1.207711   -2.627979   -2.627356
H       1.489063   -3.784337   -1.294373
H      -0.113393   -3.015525    1.266797
H       1.481139   -2.458131    0.777442
H       0.943222   -0.476955    1.955440
H      -0.783639   -0.759843    1.853003
