18

C       0.166527    1.460805   -0.014815
O       1.092956    0.401303   -0.269247
C      -0.267335    0.062134    0.017194
C      -0.484901   -0.665231    1.321285
O      -1.863665   -0.535928    1.672867
C      -2.327543   -1.719436    2.318296
C      -1.390445   -2.823387    1.878880
N      -1.218033   -2.857426    0.412918
C      -0.224533   -2.160093    1.257270
H       0.316694    1.997605    0.921146
H      -0.080886    2.081944   -0.873962
H      -0.832849   -0.341680   -0.820605
H       0.167190   -0.221065    2.091180
H      -2.292467   -1.616156    3.414435
H      -3.366906   -1.876239    2.012054
H      -1.305237   -3.734366    2.461240
H      -0.843096   -3.762932    0.140628
H       0.788770   -2.535781    1.338475
