21

C       0.820499   -0.569917   -1.059756
O      -0.068149   -0.031066   -0.097888
C      -1.425670   -0.516750   -0.124118
C      -2.080970   -0.056531   -1.439733
O      -1.936992    1.337357   -1.622696
C      -1.552106   -2.045684    0.119905
C      -2.654906   -2.219758    1.196422
C      -2.789839   -0.835415    1.779065
C      -2.125235    0.077538    1.077798
H       1.814722   -0.192150   -0.807839
H       0.848437   -1.667102   -1.032221
H       0.579120   -0.254879   -2.084264
H      -1.651764   -0.619368   -2.285664
H      -3.152428   -0.281005   -1.412057
H      -1.056078    1.553532   -1.291286
H      -1.763224   -2.606154   -0.795381
H      -0.597174   -2.404985    0.513520
H      -3.604016   -2.551536    0.754308
H      -2.391553   -2.973202    1.947557
H      -3.396612   -0.628309    2.654032
H      -2.093800    1.142096    1.270904
