17

C      -0.059590    1.524641    0.002121
C       0.040895    0.017861    0.014125
C       1.338669   -0.678871   -0.206111
C       0.721035   -0.691695    1.186186
N       1.317936    0.042163    2.266408
C       1.114984   -0.675166    3.309010
N       0.428190   -1.862159    3.087210
C       0.130195   -1.957624    1.725895
O      -0.460559   -2.853532    1.167654
H       0.833557    1.979909    0.435504
H      -0.173739    1.889192   -1.024377
H      -0.924322    1.867231    0.579247
H      -0.836126   -0.521894   -0.334701
H       1.342912   -1.629929   -0.727380
H       2.234158   -0.075319   -0.303900
H       1.439314   -0.410710    4.309059
H       0.173050   -2.552634    3.774022
