21

C      -0.048920    1.539752   -0.071729
C       0.057287    0.020151    0.035848
C       0.819641   -0.619576   -1.122019
C       2.330106   -0.458579   -0.829590
C       2.786121   -1.101753    0.505548
C       1.715517   -1.120562    1.571219
C       0.539281   -0.558020    1.342766
C      -0.903577   -0.752407    1.731578
O      -1.276903   -0.522270    0.343230
H       0.924783    2.004712   -0.251986
H      -0.712844    1.795285   -0.904313
H      -0.466879    1.970965    0.841958
H       0.548374   -1.679318   -1.172548
H       0.571125   -0.162644   -2.086539
H       2.913107   -0.886965   -1.650903
H       2.572040    0.610136   -0.816541
H       3.080303   -2.146515    0.329233
H       3.698714   -0.605326    0.860666
H       1.901368   -1.710595    2.466054
H      -1.192487   -1.748518    2.085186
H      -1.341917    0.005302    2.396528
