23

C      -0.090907    1.522525   -0.265444
C      -0.057260    0.040891    0.008991
O       1.221197   -0.610240   -0.102284
C       0.582362   -0.605025    1.165182
C       1.182524   -0.043418    2.469235
C       1.035568    1.413563    2.884486
C       0.339808   -1.115348    3.224378
C       0.133328   -1.885527    1.887954
C      -1.223728   -2.499425    1.580557
H       0.767110    2.028422    0.179031
H      -0.070966    1.701988   -1.345820
H      -1.008785    1.971161    0.129983
H      -0.865119   -0.518690   -0.468903
H       2.241419   -0.328882    2.494879
H      -0.004007    1.749475    2.809663
H       1.350512    1.540363    3.926384
H       1.653097    2.079910    2.274388
H       0.827431   -1.648566    4.042938
H      -0.601812   -0.692737    3.591435
H       0.921282   -2.638906    1.767841
H      -2.026905   -1.762574    1.691890
H      -1.261895   -2.888667    0.557139
H      -1.439818   -3.332894    2.257779
