14

C      -0.271038    1.606272    0.063105
C       0.042279    0.112417    0.022719
N       1.235459   -0.270223   -0.792383
C       1.861989   -1.055644    0.304588
C       0.823010   -0.467063    1.260978
O       0.670400   -0.392338    2.436024
C      -1.144219   -0.694233   -0.270559
N      -2.058129   -1.355804   -0.527223
H       0.643972    2.160495    0.282738
H      -0.662430    1.942496   -0.900621
H      -1.014075    1.814216    0.837609
H       1.013710   -0.806226   -1.623511
H       1.764057   -2.147260    0.227909
H       2.907981   -0.805662    0.507081
