16

C      -0.049249    1.543268    0.002489
O       1.143511    0.734269   -0.009212
C      -0.110507    0.087094    0.005915
C      -0.493569   -0.967011    1.038516
C      -1.969127   -1.309674    0.807491
C      -1.986399   -1.312905   -0.748996
C      -1.603960   -2.533593    0.027644
N      -0.147722   -2.076702    0.010390
C      -0.516393   -0.970888   -1.013959
H      -0.224671    2.097903    0.923287
H      -0.245085    2.094431   -0.916276
H      -0.048742   -1.012172    2.031352
H      -2.848658   -1.088937    1.397365
H      -2.878808   -1.094635   -1.320144
H      -1.950844   -3.558230    0.033633
H      -0.093719   -1.019796   -2.016249
