15

O       0.387355    1.294713   -0.065080
C       0.159017   -0.027995   -0.044138
N       0.192037   -0.779954   -1.135276
N      -0.086742   -1.995975   -0.651028
N      -0.295240   -2.090181    0.653820
C      -0.142981   -0.833427    1.073224
N      -0.252408   -0.340714    2.384261
C      -1.249865   -0.964945    3.271770
C       0.196601   -1.211645    3.485220
H       0.303419    1.595064    0.850655
H      -0.134375   -2.798386   -1.255065
H      -1.787471   -0.272108    3.912055
H      -1.838564   -1.773917    2.850334
H       0.584079   -2.187110    3.207841
H       0.727227   -0.701001    4.283147
