14

C       0.391998   -0.879784    0.594345
C       0.169895    0.250810    0.254312
C      -0.133432    1.613290   -0.214042
O      -0.909600    2.332573    0.736920
C      -0.053422    3.248025    1.378949
C       1.216122    2.720202    2.018458
C       1.216955    3.264122    0.603021
O       1.053507    2.357447   -0.462117
H       0.592168   -1.877078    0.901406
H      -0.703777    1.556124   -1.149017
H      -0.584227    4.114273    1.751955
H       1.671381    3.349419    2.776879
H       1.325347    1.653784    2.175162
H       1.775057    4.144168    0.310936
