9

F       0.056044    0.093891    0.002532
C      -0.084257    1.389354    0.011493
N      -1.232564    1.912524    0.029895
C      -1.275061    3.300838    0.038017
N      -2.350351    3.948439    0.056479
O      -0.032462    3.969957    0.025541
N       1.181428    3.273925    0.005148
N       1.167267    2.035694   -0.001782
H      -2.178682    4.953352    0.059984
