21

C       0.079790    1.446764    0.144312
C      -0.116959   -0.055713   -0.059546
C      -1.610053   -0.392041   -0.163062
C       0.678047   -0.552497   -1.275712
C       0.831192   -2.072481   -1.274276
C       1.532508   -2.496942    0.016307
C       0.983166   -1.856509    1.282928
O       1.141252   -2.339116    2.372412
O       0.360669   -0.658289    1.182607
H       1.138768    1.678026    0.288499
H      -0.282025    2.000619   -0.727434
H      -0.468930    1.788037    1.026001
H      -2.061363    0.125899   -1.015077
H      -1.775984   -1.465516   -0.287169
H      -2.124640   -0.076903    0.748040
H       0.176371   -0.203692   -2.184225
H       1.672911   -0.089702   -1.264064
H      -0.148395   -2.557196   -1.350627
H       1.407674   -2.402556   -2.144033
H       1.517836   -3.577415    0.173607
H       2.590702   -2.205066   -0.026545
