16

N      -0.113868   -1.242877   -0.141464
C      -0.079498   -0.088038   -0.083785
C      -0.010898    1.361685    0.014891
C      -0.070150    2.087213    1.402929
C       1.032716    1.393559    2.218902
C       2.157019    1.414427    1.130770
C       1.364180    2.113827    0.014737
N       0.712737    3.227211    0.798340
H      -0.705514    1.818661   -0.694050
H      -1.019348    2.312688    1.887505
H       1.289206    1.979836    3.102292
H       0.752674    0.384636    2.528321
H       3.020206    2.011968    1.426978
H       2.494657    0.416969    0.842384
H       1.874940    2.366391   -0.913683
H       0.090039    3.730936    0.164600
