20

O      -0.042870    1.416474    0.076085
C       0.030757    0.010136    0.017429
C       0.282146   -0.619579   -1.388007
N      -0.972162   -1.430432   -1.312400
C      -0.793516   -2.682378   -0.500967
C      -1.209436   -1.969785    0.819520
C      -0.096371   -1.692482    1.837937
C       0.831570   -0.632715    1.183852
C      -1.351284   -0.693849   -0.037959
H       0.853645    1.767794    0.049274
H       0.195761    0.130432   -2.180503
H       1.200955   -1.199574   -1.534672
H      -1.488344   -3.461376   -0.827931
H       0.221894   -3.097406   -0.525730
H      -2.116438   -2.369304    1.276731
H      -0.538778   -1.283159    2.752758
H       0.440167   -2.602764    2.124666
H       1.761856   -1.080594    0.819899
H       1.105666    0.144780    1.902733
H      -2.249440   -0.074713   -0.032574
