16

O      -0.000754    1.325379   -0.201567
C      -0.035310   -0.063417   -0.034860
C      -0.496019   -0.660134    1.274959
C      -1.104283    0.292551    2.282318
C      -2.275065    0.984013    1.560315
O      -2.873439    1.942418    1.969181
C      -2.567275    0.237645    0.249099
C      -1.393621   -0.695306    0.030834
H       0.756945    1.672661    0.280984
H       0.734390   -0.608807   -0.580134
H      -0.007411   -1.560129    1.630437
H      -1.507023   -0.252034    3.145141
H      -0.420732    1.050458    2.677290
H      -3.500506   -0.325364    0.372419
H      -2.725486    0.962530   -0.553294
H      -1.554243   -1.620737   -0.509235
