19

O      -0.104417    1.387768   -0.516467
C      -0.011359    0.078892    0.023509
C      -1.381628   -0.574570   -0.094899
C      -1.409014   -1.995136    0.482824
C      -2.771197   -2.627364    0.353186
O      -3.160041   -3.081105   -0.942746
C      -2.979489   -4.069224    0.086760
C      -1.889471   -4.996656   -0.059370
C      -1.001578   -5.800949   -0.160246
H       0.765740    1.794323   -0.472399
H       0.735317   -0.525484   -0.517375
H       0.298359    0.104875    1.081983
H      -2.114074    0.059765    0.419439
H      -1.672110   -0.601073   -1.150750
H      -0.674150   -2.628906   -0.024012
H      -1.136866   -1.974902    1.547009
H      -3.573431   -2.121358    0.896044
H      -3.911137   -4.515692    0.434415
H      -0.215302   -6.508404   -0.257403
