23

C       0.173776    1.538366    0.355769
O       0.801044    0.310767    0.065815
C       0.748577   -0.602678    1.127107
C      -0.594069   -1.320710    1.445590
C       0.210817   -2.640277    1.601673
C       1.405845   -1.983336    0.840383
C       1.491550   -2.353481   -0.619948
C       2.764366   -2.126353   -1.389858
C       2.335492   -3.531885   -1.043479
H       0.637741    2.037452    1.221804
H       0.287253    2.178805   -0.522420
H      -0.899277    1.415111    0.566849
H       1.169416   -0.148486    2.039367
H      -1.175223   -0.970824    2.301916
H      -1.238860   -1.337945    0.562047
H       0.451500   -2.860450    2.644888
H      -0.214151   -3.537582    1.146627
H       2.388814   -2.122725    1.302111
H       0.573234   -2.203900   -1.180661
H       2.691746   -1.801862   -2.421819
H       3.610089   -1.707903   -0.854152
H       2.894028   -4.058820   -0.276208
H       1.968945   -4.171015   -1.839368
