12

O      -0.099775    1.445567    0.010831
C       0.046046    0.039685    0.001818
C      -1.378152   -0.536514    0.012312
C      -1.398296   -1.987023    0.004558
C      -1.396528   -3.195248   -0.002059
C      -1.396916   -4.560285   -0.009437
N      -1.395136   -5.722077   -0.015563
H       0.775579    1.843695    0.005032
H       0.576999   -0.315094   -0.893531
H       0.593996   -0.324733    0.882940
H      -1.902521   -0.160260    0.899025
H      -1.919375   -0.150627   -0.860019
