19

C      -0.270916    1.374498   -0.074085
C       0.088908   -0.099057   -0.096173
C       1.165487   -0.513744   -1.108541
C       1.698534   -1.819651   -0.506794
C       1.382687   -1.667248    1.002265
O       0.669257   -0.452465    1.161343
O       0.961617   -2.940656   -1.028856
C       1.624038   -3.876097   -1.733687
O       1.083857   -4.820816   -2.224314
H       0.622901    1.983928    0.091591
H      -0.728124    1.671252   -1.022875
H      -0.982387    1.582283    0.729559
H      -0.817504   -0.703326   -0.267290
H       0.793618   -0.657705   -2.124772
H       1.960702    0.239418   -1.124645
H       2.763982   -1.977479   -0.701187
H       0.786640   -2.532063    1.323744
H       2.286307   -1.614997    1.617780
H       2.711382   -3.672793   -1.800259
