20

C      -0.104524    1.545755    0.104998
C       0.260706    0.112856   -0.255263
C       1.713832   -0.183022   -0.787275
C       1.912202   -1.169919    0.368754
N       1.703342   -0.405661    1.622713
C       0.526086   -0.867034    0.901335
C       2.555438   -2.500677    0.444731
C       3.079973   -3.097452   -0.845109
O       2.636340   -3.085307    1.509815
H       0.608090    1.948063    0.829686
H      -0.094833    2.186607   -0.783143
H      -1.106959    1.598999    0.543810
H      -0.476092   -0.313951   -0.942284
H       1.712821   -0.649143   -1.774507
H       2.406124    0.662764   -0.782589
H       1.883454   -1.076877    2.372564
H      -0.167563   -1.566080    1.355069
H       3.828939   -2.435324   -1.293910
H       3.522675   -4.072875   -0.642000
H       2.271663   -3.204826   -1.577020
