20

O      -0.354615    0.018071    0.212173
C      -0.183681    1.219394    0.176035
N      -1.162595    2.175744    0.198977
C      -0.680659    3.534586    0.015428
C       0.811537    3.401436    0.394075
C       1.156851    1.943672    0.059600
C       2.374190    1.299170    0.771543
C       3.214839    1.476813   -0.519824
C       1.895067    1.699899   -1.303382
H      -2.131836    1.912762    0.114661
H      -0.805952    3.873307   -1.023199
H      -1.213046    4.239290    0.661773
H       1.436115    4.132457   -0.125107
H       0.926455    3.567502    1.470899
H       2.727560    1.790609    1.682181
H       2.162394    0.248435    0.986978
H       3.835360    2.376838   -0.490382
H       3.840169    0.636920   -0.829886
H       1.540313    0.781693   -1.777790
H       1.862797    2.515078   -2.031546
