21

C      -0.127681    1.567289   -0.009215
C      -0.073191    0.040421   -0.006842
C      -1.431818   -0.561824   -0.361435
C       1.164560   -0.605469   -0.685478
C       2.084678   -0.318544    0.539399
O       2.570130   -1.688871    0.659372
C       1.164820   -1.820293    0.290984
C       0.686266   -0.621680    1.183524
C       0.354505   -0.660658    2.647531
H       0.837967    2.015410    0.245139
H      -0.420062    1.946939   -0.995054
H      -0.866150    1.935718    0.712472
H      -1.756933   -0.235599   -1.356109
H      -1.410953   -1.656150   -0.362260
H      -2.201279   -0.244008    0.351888
H       1.462642   -0.614486   -1.734718
H       2.786084    0.494781    0.722314
H       0.754157   -2.822539    0.173570
H       1.123663   -1.220896    3.189631
H       0.303925    0.347679    3.072934
H      -0.610757   -1.147217    2.825856
