18

C      -0.000590    1.536078   -0.000859
C       0.098745    0.026479    0.060817
C       1.341089   -0.801517   -0.213834
C       2.595502   -0.099607    0.349676
C       1.943537   -0.143425    1.782695
C       0.695838   -0.794204    1.169805
O       0.021260   -1.832365    1.782523
C       3.822118   -0.871047    0.228374
N       4.795789   -1.486498    0.127579
H       0.861574    2.035150    0.449997
H      -0.076121    1.880328   -1.037714
H      -0.891587    1.887770    0.530351
H      -0.772150   -0.484199   -0.348049
H       1.364697   -1.576338   -0.969022
H       2.777593    0.904560   -0.045188
H       2.469629   -0.842813    2.433263
H       1.828672    0.816302    2.295267
H      -0.761530   -1.478295    2.218089
