20

O      -0.088099    1.417107   -0.337734
C       0.000148    0.057343    0.058323
C      -1.386376   -0.558234   -0.078414
C      -1.422358   -2.033741    0.336714
C      -2.804062   -2.635839    0.198223
C      -3.273789   -3.201429   -1.107642
C      -3.002447   -4.142450    0.059607
C      -1.866865   -5.019521    0.014272
N      -0.949791   -5.724981   -0.017265
H       0.786464    1.809835   -0.264028
H       0.715942   -0.497412   -0.570221
H       0.346461   -0.033844    1.101183
H      -2.086025    0.025111    0.532719
H      -1.716051   -0.450856   -1.118509
H      -0.712039   -2.610593   -0.267882
H      -1.087485   -2.135349    1.377314
H      -3.567411   -2.157201    0.806506
H      -4.308449   -3.077059   -1.405029
H      -2.565585   -3.229435   -1.928404
H      -3.865610   -4.571456    0.557004
