16

O       0.320134    1.196216    0.444987
C       0.239618   -0.036286   -0.207791
C      -1.266288   -0.561224   -0.329378
C      -1.429809    0.047476   -1.740203
C      -2.002799   -1.291738   -2.186586
C      -0.813532   -2.167738   -2.216763
C       0.417488   -1.390504   -2.153595
C       0.108420   -0.125400   -1.742212
N      -1.635746   -1.938023   -0.883112
H      -0.119501    1.860862   -0.096189
H       0.972683   -0.694005    0.261635
H      -1.922957   -0.322150    0.508960
H      -1.889642    1.007897   -1.956946
H      -2.937479   -1.494244   -2.694822
H      -0.883259   -3.201679   -2.530092
H       1.364302   -1.867574   -1.920031
