16

C      -0.051460    1.531447   -0.085774
C       0.025689    0.029256   -0.026217
C      -0.811819   -0.755139    0.947481
C       0.689299   -0.802113    1.146433
N       1.348931   -1.873809    0.442083
C       1.148008   -1.653660   -0.907232
N       0.421225   -0.647135   -1.229363
C       1.325468   -0.257445    2.302070
N       1.843810    0.193267    3.234428
H       0.869329    1.950381   -0.500419
H      -0.883550    1.835214   -0.728957
H      -0.211132    1.956899    0.908522
H      -1.366974   -0.178398    1.678723
H      -1.286378   -1.673928    0.618558
H       2.212238   -2.258334    0.794320
H       1.571824   -2.346809   -1.625887
