22

C       1.098045   -2.594116    1.048929
C       0.217132   -1.753748    0.102368
C      -0.440223   -0.622894    0.877902
O      -0.551221    0.517674    0.507797
C       0.949129   -1.291128   -1.158044
C       2.167509   -0.412383   -0.932547
C       0.933561   -2.224168   -2.331676
N       0.210419   -0.962330   -2.378703
C      -1.241594   -0.982486   -2.433691
H       1.495593   -3.465679    0.522650
H       1.942841   -2.017159    1.435039
H       0.518142   -2.951572    1.906042
H      -0.624161   -2.399822   -0.188615
H      -0.853880   -0.941688    1.864652
H       2.952017   -0.940429   -0.380232
H       2.575115   -0.105493   -1.898102
H       1.896655    0.490075   -0.377990
H       1.798776   -2.310575   -2.985723
H       0.353161   -3.142966   -2.232025
H      -1.712954   -1.857194   -1.956007
H      -1.628946   -0.076512   -1.960355
H      -1.548074   -0.982624   -3.484820
