20

C       0.826161   -0.495426    1.301164
C       0.059266   -0.035958    0.055621
C      -1.369391   -0.603110   -0.020102
C      -2.150465   -0.018425    1.074427
N      -2.722540    0.472230    1.952215
C      -2.123602   -0.708192   -1.403642
C      -1.195970   -1.906983   -1.760284
C      -1.629691   -2.139781   -0.284478
C      -3.067518   -1.755315   -0.742994
H       1.820747   -0.041268    1.329320
H       0.301051   -0.211717    2.218075
H       0.954879   -1.582857    1.308854
H      -0.012160    1.057943    0.050605
H       0.618762   -0.308656   -0.841361
H      -2.403455    0.133735   -2.037787
H      -1.607895   -2.614259   -2.483035
H      -0.145412   -1.712284   -1.970830
H      -1.341330   -2.957620    0.376340
H      -3.759447   -1.397014    0.020015
H      -3.549457   -2.456954   -1.426524
