19

C      -0.165738    1.575849   -0.188059
C      -0.003864    0.067648   -0.003368
C       1.079125   -0.574456   -0.915497
C       1.988315   -0.607051    0.335845
N       0.793366   -0.383406    1.168835
C       0.887587    0.382380    2.385696
C       1.404028   -0.482355    3.527575
O       2.124845   -0.094396    4.408810
H       0.801284    2.090022   -0.198021
H      -0.664875    1.779902   -1.141390
H      -0.777783    2.017966    0.605051
H      -0.991682   -0.408964   -0.038426
H       0.806215   -1.568297   -1.273340
H       1.421349    0.032155   -1.755388
H       2.530370   -1.534969    0.548024
H       2.707186    0.227915    0.365453
H       1.511175    1.290821    2.325685
H      -0.124534    0.698120    2.680671
H       1.038846   -1.533379    3.478151
