16

N       0.114929    1.460697    0.102750
C       0.086650    0.044736   -0.010824
C      -1.187937   -0.675724    0.251245
O      -2.281746    0.136757    0.539800
C      -3.508175   -0.325806    0.162144
N      -4.534012    0.299321    0.530369
C      -0.629204   -0.710661   -1.177167
C      -1.254618    0.059354   -2.203987
N      -1.747476    0.695746   -3.036239
H       0.636832    1.893805   -0.650774
H      -0.821805    1.848256    0.114576
H       0.993037   -0.453159    0.322761
H      -1.163741   -1.612333    0.803065
H      -3.457504   -1.230727   -0.454268
H      -5.370609   -0.147148    0.160452
H      -0.196065   -1.650321   -1.504185
