21

C      -0.090102    1.519868    0.018654
C       0.003412   -0.001933   -0.002122
C       1.155983   -0.588506   -0.877825
C       2.070107   -0.500982    0.381432
C       0.755187   -0.633305    1.209522
C       0.441041   -2.123546    1.297002
O      -0.748081   -2.597581    0.655155
C       0.516721   -2.862372    0.027204
C       0.870598   -2.062633   -1.221793
H       0.875157    1.999884    0.210135
H      -0.459275    1.895241   -0.942278
H      -0.786359    1.856595    0.794666
H      -0.982898   -0.430358   -0.189888
H       1.454577   -0.027399   -1.768031
H       2.831692   -1.275638    0.516132
H       2.538101    0.478909    0.488809
H       0.683511   -0.135403    2.179903
H       0.676641   -2.625780    2.234584
H       0.787187   -3.917474    0.026772
H       0.062217   -2.143139   -1.959242
H       1.762100   -2.514206   -1.675119
