19

C      -0.084620   -1.252193   -0.181673
C      -0.035334   -0.053824   -0.093057
C       0.029648    1.396821    0.031889
C      -0.656052    1.942455    1.343904
C       0.136800    3.226531    1.642200
C       0.978011    3.528265    2.935506
C       2.242907    3.740101    2.019020
C       1.460530    2.987094    0.968312
C       1.466096    1.943882    0.149254
H      -0.130516   -2.309473   -0.266066
H      -0.471378    1.832746   -0.846185
H      -1.731803    2.087153    1.214025
H      -0.507962    1.205327    2.139371
H      -0.380554    4.131989    1.301752
H       0.666900    4.376411    3.549744
H       1.085530    2.640951    3.564304
H       2.384460    4.799455    1.779819
H       3.198324    3.321020    2.342598
H       2.308347    1.455765   -0.324298
