16

C      -0.113621    1.631490    0.053390
C      -0.160210    0.124122    0.114835
C      -1.398624   -0.534530   -0.472882
O      -1.509030   -0.263293   -1.857820
O       1.048047   -0.556673   -0.241914
C       0.625612   -0.659091    1.114044
C       1.457127    0.008902    2.164674
O       2.297327    0.846345    1.958814
H       0.860479    2.003078    0.370241
H      -0.307922    1.949227   -0.974561
H      -0.892112    2.064504    0.690362
H      -1.367894   -1.615672   -0.274412
H      -2.301629   -0.127250   -0.006210
H      -0.723036   -0.630137   -2.279123
H       0.238692   -1.636653    1.409177
H       1.219055   -0.336246    3.196404
