18

C      -0.083696    1.525283    0.017893
C       0.055255    0.004440    0.046302
C       0.996639   -0.582650   -1.075427
C       2.029420   -1.333323   -0.206205
C       1.104609   -2.016746    0.857404
C       0.780998   -0.550154    1.299066
C       2.252282   -0.300058    0.915913
O       3.181845    0.293932    1.375689
H       0.893098    2.015292    0.096486
H      -0.550621    1.856990   -0.915450
H      -0.703302    1.883297    0.847018
H      -0.939743   -0.448082   -0.022676
H       0.468103   -1.258851   -1.752881
H       1.457493    0.205844   -1.677905
H       2.851744   -1.849081   -0.697574
H       0.265751   -2.597606    0.465651
H       1.653648   -2.586720    1.608795
H       0.379065   -0.299653    2.279059
