16

O      -0.163722    0.079138   -0.459293
C      -0.064585    1.221880   -0.073091
N       1.122456    1.843757    0.185355
C       2.392178    1.150647    0.084793
C       2.743446    0.691818   -1.367714
N       3.530089    1.935587   -1.541458
C       3.584474    2.142806   -0.082541
C       2.552722    0.146880    1.140466
N       2.720369   -0.623975    1.984849
H      -0.929237    1.891657    0.097777
H       1.114808    2.767027    0.590090
H       3.330601   -0.233984   -1.356538
H       1.893152    0.579106   -2.040515
H       4.430131    1.818640   -1.991606
H       3.399485    3.172315    0.246856
H       4.484574    1.765968    0.417976
