20

C      -0.284402    1.470200    0.038684
C       0.014937   -0.036589   -0.005260
C       0.795829   -0.389845   -1.259365
O       0.497676   -1.268704   -2.027108
C       0.768345   -0.541601    1.236159
C       2.070128    0.158249    1.588449
C      -0.088439   -1.035381    2.380264
C       0.667433   -2.021519    1.521450
H       0.629139    2.068292   -0.042572
H      -0.944886    1.761569   -0.783601
H      -0.775243    1.734495    0.980037
H      -0.925137   -0.594138   -0.074781
H       1.706116    0.231788   -1.434170
H       1.916775    1.222198    1.797632
H       2.512069   -0.290198    2.483368
H       2.811403    0.078163    0.785588
H       0.265723   -0.859927    3.390854
H      -1.167267   -0.987863    2.275348
H       0.102770   -2.635319    0.827969
H       1.530805   -2.518302    1.951024
