14

C      -0.025610    1.465258   -0.021691
C       0.018243   -0.025622   -0.044363
N       0.043032   -0.766221   -1.125411
C       0.079260   -2.046983   -0.622731
O       0.112766   -3.110198   -1.424447
N       0.079021   -2.162362    0.681140
N       0.039058   -0.839881    1.066705
C       0.023848   -0.451752    2.412599
O       0.043304   -1.204967    3.341748
H       0.845918    1.889128    0.486905
H      -0.033375    1.820136   -1.052566
H      -0.923106    1.837183    0.482358
H       0.105651   -2.780401   -2.331454
H      -0.008763    0.648098    2.501263
