14

C       0.999110    1.105822    0.008729
N       0.295797    0.137466   -0.838698
C      -0.349862    0.600057    0.401986
C      -0.529270   -0.415570    1.456588
N      -1.332403   -0.211883    2.504887
N      -1.205704   -1.333157    3.204729
N      -0.396033   -2.257614    2.708149
C       0.049845   -1.693273    1.586074
H       1.879831    0.717032    0.511681
H       1.076188    2.139997   -0.316931
H      -0.117880    0.599412   -1.643385
H      -1.168641    1.310890    0.328219
H      -1.711076   -1.478621    4.063378
H       0.731920   -2.204960    0.928013
