15

O      -0.242526    1.389378    0.092656
C      -0.095406    0.009267    0.048067
C      -0.361584   -0.772048   -1.199348
C      -1.293225   -0.903575    0.004736
C      -0.991818   -2.028505    0.923852
N      -1.787488   -2.941373    1.278261
O       0.317673   -1.931927    1.341565
C       0.855405   -0.634117    1.050300
H       0.405440    1.783373   -0.501066
H      -0.776418   -0.220147   -2.035475
H       0.280606   -1.606424   -1.463621
H      -2.308931   -0.543840   -0.074091
H      -1.335684   -3.565659    1.948890
H       1.876490   -0.768456    0.677916
H       0.882616   -0.028407    1.964112
