20

C      -0.145847    1.585830   -0.156211
C      -0.036647    0.155474    0.363828
N      -1.302511   -0.549434    0.160243
C      -1.472825   -1.249838   -1.098348
C      -1.294780   -2.025119    0.176530
C      -0.092962   -2.780628    0.399139
C       0.901628   -3.428098    0.617962
C       2.088243   -4.222848    0.928805
O       2.647310   -3.941091    2.205085
H       0.782993    2.132981    0.031407
H      -0.332788    1.598913   -1.235190
H      -0.967548    2.114685    0.334820
H       0.807999   -0.361749   -0.117761
H       0.166598    0.159196    1.440621
H      -2.456428   -1.192575   -1.557088
H      -0.636057   -1.268755   -1.795111
H      -2.185222   -2.445729    0.638989
H       1.841435   -5.292123    0.826446
H       2.883803   -4.014169    0.204717
H       1.933753   -3.995961    2.849311
