16

C       0.102677    1.453801   -0.062902
C      -0.066543   -0.021197   -0.036859
C      -1.143381   -0.843180   -0.052664
C      -0.625805   -2.188776   -0.008270
C      -1.360232   -3.398666   -0.005270
N      -1.959506   -4.390422   -0.002777
C       0.740512   -2.081300    0.031537
C       1.830711   -3.085307    0.086137
O       1.083027   -0.771966    0.014380
H       0.682032    1.774849   -0.935643
H      -0.875611    1.936956   -0.103568
H       0.627112    1.812356    0.829733
H      -2.180941   -0.553899   -0.090577
H       2.496230   -2.994736   -0.779399
H       2.441982   -2.957820    0.986348
H       1.405176   -4.090528    0.094063
