17

C      -0.617828    0.470573    0.595411
O       0.304342    0.810293   -0.431382
C       0.582015   -0.174281   -1.303422
C       0.148515   -1.484496   -1.416076
C       0.841948   -1.942450   -2.557899
O       0.744277   -3.185836   -3.074076
N       1.623259   -1.028072   -3.103962
N       1.451594    0.077039   -2.307916
C       2.157950    1.300670   -2.596042
H      -1.587580    0.183859    0.171836
H      -0.234627   -0.353048    1.209288
H      -0.735159    1.363368    1.210465
H      -0.542545   -2.023110   -0.793220
H       1.325162   -3.211295   -3.845179
H       1.893363    1.668962   -3.592048
H       1.879983    2.044695   -1.849387
H       3.239167    1.135394   -2.559294
