13

N      -0.083596   -1.098735    0.505853
C      -0.032083    0.021750    0.231467
C       0.027622    1.438106   -0.127495
C       1.436481    1.995162   -0.062056
N       2.075347    1.932290    1.113294
C       3.297264    2.440079    1.109506
C       3.831473    2.995224   -0.055700
N       3.135457    3.037258   -1.186346
N       1.908049    2.522143   -1.192546
H      -0.357571    1.579185   -1.140177
H      -0.613237    1.998700    0.562898
H       3.859832    2.411463    2.039466
H       4.830060    3.418256   -0.089348
