19

C      -0.484132    1.528363    0.181454
C       0.108377    0.124953   -0.044975
C       0.850124   -0.424575    1.126359
C       2.179945   -0.672349    1.349646
O       3.194226   -0.465603    0.473509
N       2.410970   -1.174581    2.599004
C       1.223061   -1.246114    3.175078
C       0.952874   -1.739888    4.556553
N       0.253676   -0.804205    2.329640
H       0.304065    2.247490    0.422578
H      -1.010074    1.879727   -0.712090
H      -1.200265    1.532167    1.010792
H      -0.696716   -0.561035   -0.345767
H       0.808612    0.156214   -0.885518
H       3.996896   -0.752576    0.924496
H       0.484799   -0.971429    5.183142
H       0.291480   -2.614481    4.558338
H       1.899594   -2.026314    5.016241
H      -0.731826   -0.766527    2.528867
