18

C       0.114899    1.481663   -0.061987
N       0.032048    0.033900    0.050276
C      -1.082697   -0.719866    0.741998
C      -0.107085   -1.910557    0.479772
O      -0.052262   -2.982893   -0.016548
C       0.787693   -0.775701    1.078248
C      -0.353098   -0.611295    2.140226
C      -0.507959    0.614130    3.024990
O      -0.420122   -1.780202    2.938147
H       0.096635    2.071262    0.863385
H       1.046758    1.721406   -0.584902
H      -0.710968    1.820004   -0.695656
H      -2.131669   -0.584453    0.479154
H       1.867354   -0.712891    1.204304
H      -0.511598    1.559700    2.489120
H      -1.461024    0.546306    3.565425
H       0.292896    0.632087    3.770252
H      -1.233145   -1.757980    3.454743
