17

C      -0.048467    1.458517   -0.098976
C       0.013612   -0.014150    0.143421
C      -0.991986   -0.873991    0.330254
C      -2.381580   -1.220402   -0.147724
O      -1.866591   -2.525872   -0.574299
C      -0.633681   -2.308438    0.173649
C       0.762150   -2.200112   -0.491405
O       1.294929   -2.944173   -1.260968
C       1.302123   -0.817733    0.001445
H       0.474599    2.015994    0.688176
H       0.442847    1.719436   -1.044709
H      -1.080995    1.816835   -0.133266
H      -3.149363   -1.347777    0.625630
H      -2.787170   -0.632471   -0.978004
H      -0.587730   -2.967675    1.052536
H       1.997914   -0.392169   -0.728999
H       1.861515   -0.954285    0.936714
