21

C      -0.099935    1.499002    0.029489
C      -0.026798   -0.002758   -0.009742
C      -0.036832   -0.706414   -1.143538
C       0.105714   -2.206936   -1.138845
O       0.905392   -2.672161   -0.056917
C       0.524003   -2.168856    1.188861
C       1.425784   -1.139193    1.821090
C       0.050582   -0.743487    1.291325
C      -1.028867   -0.422968    2.311380
H       0.759758    1.919779    0.566159
H      -0.113818    1.921103   -0.978855
H      -0.997134    1.848206    0.554499
H      -0.120845   -0.212218   -2.108079
H      -0.884989   -2.694133   -1.122420
H       0.613880   -2.548325   -2.046282
H       0.052068   -2.911172    1.832320
H       1.576468   -1.161649    2.895901
H       2.291296   -0.850839    1.235627
H      -0.948817    0.608075    2.672469
H      -2.029380   -0.553573    1.883724
H      -0.947636   -1.081051    3.182123
