17

C       0.089484    1.416326    0.236918
C      -0.192766   -0.020333   -0.197889
N       0.669931   -0.441340   -1.295790
N       0.224997   -0.615832   -2.530720
N       1.269990   -0.949525   -3.247884
C       2.327875   -0.956315   -2.403044
C       3.706643   -1.319339   -2.867320
O       3.942590   -0.885374   -4.188926
N       1.979026   -0.635706   -1.162411
H       1.124947    1.521835    0.568786
H      -0.087834    2.113433   -0.586409
H      -0.571008    1.684062    1.066277
H      -0.034921   -0.719671    0.627319
H      -1.212913   -0.138415   -0.566952
H       4.448051   -0.844023   -2.218979
H       3.841000   -2.409728   -2.769686
H       3.139845   -1.063822   -4.693497
