18

C      -0.417333    1.506264   -0.127957
C       0.160719    0.105790   -0.070282
O       1.373893    0.048978   -0.817785
C       1.968913   -1.159976   -0.431965
O       1.646234   -1.370292    0.938284
C       0.618067   -0.455577    1.296108
C       1.184925    0.611279    2.255526
C       1.740972    0.018541    3.468651
N       2.164839   -0.443155    4.439019
H       0.299116    2.249535    0.230201
H      -0.676446    1.757302   -1.159439
H      -1.327713    1.570642    0.475785
H      -0.562598   -0.610007   -0.495241
H       1.579124   -2.004123   -1.025848
H       3.053298   -1.079446   -0.556441
H      -0.186204   -1.005255    1.796568
H       1.968510    1.178563    1.742778
H       0.398024    1.316605    2.545351
