23

C      -0.203015    1.495568    0.108247
C      -0.141201   -0.029385   -0.012043
O      -1.423901   -0.577240   -0.282713
C       0.850777   -0.468264   -1.089815
C       0.997677   -1.972582   -1.379581
C       0.545385   -1.615228   -2.819221
C       1.649455   -1.658475   -3.868393
C      -0.738000   -2.270985   -3.304768
O       0.300440   -0.225571   -2.411319
H       0.756357    1.906731    0.440295
H      -0.446828    1.943580   -0.861263
H      -0.974092    1.783932    0.827013
H       0.175446   -0.463669    0.945009
H      -1.609885   -0.330334   -1.198686
H       1.805783    0.058764   -0.958699
H       2.002533   -2.387002   -1.283357
H       0.284441   -2.591471   -0.833033
H       1.905402   -2.693711   -4.118922
H       1.325551   -1.153569   -4.784093
H       2.552518   -1.159136   -3.505378
H      -1.504992   -2.238402   -2.526778
H      -1.117115   -1.758804   -4.195483
H      -0.558234   -3.319486   -3.565874
