18

O       0.007023   -0.034092    0.696430
C       0.021153    1.163959    0.504542
N       1.045865    1.837034   -0.068032
C       2.402668    1.376965   -0.373664
C       2.796849    2.859771   -0.631749
C       2.828297    3.342375   -2.093148
O       1.891978    4.408335   -2.166784
C       0.777274    4.049660   -1.363061
C       1.364315    3.267795   -0.166877
H      -0.819064    1.839314    0.770825
H       2.893083    0.906488    0.484086
H       2.469201    0.702658   -1.233625
H       3.627444    3.239196   -0.039051
H       3.798499    3.733456   -2.407940
H       2.543952    2.524440   -2.775469
H       0.267278    4.972631   -1.076082
H       0.073451    3.407262   -1.914426
H       1.280331    3.804462    0.782281
