14

C      -0.031271    1.516320    0.127687
C       0.152420    0.006158    0.001260
C       0.593272   -0.426763   -1.383988
O       0.789207    0.335875   -2.303765
C       0.778063   -1.862105   -1.559021
C       0.944294   -3.052103   -1.705008
C       1.111988   -4.473143   -1.898127
O       2.111650   -5.081257   -1.598948
H       0.901484    2.042979   -0.088031
H      -0.782909    1.879714   -0.577349
H      -0.350483    1.775718    1.140357
H       0.894956   -0.374166    0.716135
H      -0.772807   -0.536978    0.238383
H       0.232152   -4.972395   -2.350529
