15

N      -0.028404    1.269981    0.359533
C      -0.004311    0.050864    0.009224
O       1.174863   -0.618809   -0.193657
C       1.127972   -1.802647   -0.984325
C       0.068144   -2.786087   -0.448813
C      -1.245193   -2.045539   -0.296548
C      -1.244771   -0.724752   -0.113676
C      -0.047371   -3.939573   -1.342496
N      -0.130503   -4.844272   -2.056135
H       0.922722    1.640728    0.413180
H       0.894923   -1.553336   -2.026615
H       2.128582   -2.234965   -0.939890
H       0.392898   -3.161135    0.532686
H      -2.164994   -2.618503   -0.330653
H      -2.157865   -0.156021    0.009952
