18

C       0.438075   -0.953542   -1.205940
N      -0.265410   -0.586912    0.015854
C       0.507788   -0.741933    1.239199
C       1.815190   -0.057647    1.259281
C       2.867205    0.524468    1.237741
C      -0.332102   -0.187911    2.399369
O      -1.115293    0.719032    2.291904
O      -0.056246   -0.831266    3.540655
C      -0.741470   -0.340861    4.703491
H       0.675994   -2.023435   -1.183950
H      -0.224725   -0.779147   -2.057725
H       1.377127   -0.402999   -1.372622
H      -0.607674    0.367579   -0.023130
H       0.674451   -1.810298    1.422988
H       3.800170    1.032165    1.225459
H      -0.484928    0.705645    4.884902
H      -1.822995   -0.423271    4.572853
H      -0.405469   -0.966954    5.529488
