14

O       0.044233    0.115961   -0.505789
C       0.013132    1.239562   -0.077275
C      -1.243799    2.030758    0.181703
C      -1.533927    2.939695   -1.031400
N      -0.534560    3.905465   -1.415561
C       0.656907    3.999061   -1.047668
O       1.461391    3.272971   -0.167267
C       1.326532    1.971611    0.248915
O       2.200544    1.469753    0.885388
H      -2.073817    1.333262    0.317725
H      -1.133360    2.641290    1.084881
H      -1.735477    2.312618   -1.908837
H      -2.458696    3.494678   -0.839579
H       1.279872    4.807812   -1.422845
