21

C       0.027764    1.537472   -0.140966
O       1.469725    1.536553    0.077403
C       1.364345    0.267056    0.731484
C       2.241273   -0.989917    0.677210
C       1.424249   -1.382375    1.964876
C       1.354560    0.140481    2.271186
C       0.001574   -1.915639    1.641699
C      -0.909110   -0.810660    1.023535
C      -0.012653    0.014765    0.108075
H      -0.488262    2.141283    0.618123
H      -0.234013    1.902118   -1.138462
H       2.164682   -1.621125   -0.213023
H       3.291793   -0.816511    0.927866
H       1.938170   -2.024596    2.681263
H       2.291669    0.509507    2.695893
H       0.513102    0.536044    2.844420
H       0.081195   -2.764272    0.951073
H      -0.461607   -2.302946    2.555886
H      -1.759251   -1.257175    0.499128
H      -1.327250   -0.186511    1.819894
H       0.125959   -0.497914   -0.850213
