19

C      -0.123129    1.447822   -0.110217
O       0.012785    0.046292   -0.094499
C      -1.212291   -0.618422    0.127656
C      -0.971034   -2.088414    0.029190
O      -1.959493   -2.968450    0.584142
C      -0.586957   -3.112583    0.994750
C       0.200556   -3.897166   -0.100836
C      -0.679609   -4.249695   -1.271294
C      -0.200480   -2.831942   -1.112803
H       0.867205    1.869240   -0.297643
H      -0.809813    1.782543   -0.903841
H      -0.497806    1.832765    0.851315
H      -1.629471   -0.382778    1.119962
H      -1.959950   -0.310059   -0.625100
H      -0.377096   -3.066967    2.056747
H       1.178970   -4.327103    0.064387
H      -0.183179   -4.810496   -2.056978
H      -1.721967   -4.496541   -1.114173
H       0.429594   -2.318446   -1.825125
