17

O       0.839120   -0.266185   -0.534379
C       0.535112    0.897065   -0.476319
C       1.542500    2.020750   -0.312852
C       1.267173    3.258212   -1.197807
C       2.237738    4.318564   -0.936240
C       3.053779    5.177793   -0.736970
C       1.220800    2.950237   -2.694623
C       1.836591    1.772516   -3.315869
O       0.422200    1.834365   -3.076353
H      -0.529104    1.220104   -0.480410
H       1.486538    2.346454    0.734553
H       2.548813    1.626515   -0.472288
H       0.267719    3.639415   -0.938370
H       3.767073    5.943284   -0.554408
H       1.078831    3.836263   -3.313918
H       2.127531    1.817522   -4.363450
H       2.369845    1.040693   -2.714828
