17

C      -0.028056    1.584530    0.088178
C       0.025133    0.065016    0.023682
C       1.046101   -0.609908   -0.968632
C       1.693828   -1.313900    0.237749
C       2.423310   -2.616627    0.276942
O       2.130396   -0.264697    1.120428
C       0.752508   -0.665449    1.168054
H       0.967855    1.988058    0.291441
H      -0.383465    2.007955   -0.857267
H      -0.703718    1.925182    0.880730
H      -0.974848   -0.356165   -0.123577
H       0.564489   -1.294422   -1.671619
H       1.711966    0.064594   -1.513876
H       3.381894   -2.541799   -0.249436
H       2.625758   -2.910678    1.310305
H       1.837232   -3.405469   -0.205867
H       0.368392   -0.984474    2.131818
