20

C      -0.291093    1.509974   -0.072723
C       0.125148    0.038184    0.050550
C       0.829959   -0.491161   -1.178588
C       0.044074   -1.025312   -2.341895
C       0.907315   -1.966504   -1.520078
C       2.278289   -2.223400   -2.086030
O       2.774603   -3.287795   -2.383212
N       2.879894   -0.991074   -2.211236
C       2.197432    0.101960   -1.541686
H       0.577435    2.162245   -0.213918
H      -0.961343    1.659374   -0.925498
H      -0.811395    1.846258    0.829012
H       0.777901   -0.086816    0.924690
H      -0.762164   -0.577382    0.240526
H      -1.028894   -1.119373   -2.209771
H       0.356755   -0.795365   -3.355710
H       0.448327   -2.747584   -0.928286
H       3.830390   -0.928377   -2.538160
H       2.109710    0.980876   -2.192465
H       2.729557    0.413273   -0.630332
