12

C       0.193207   -1.191213   -0.006325
C       0.077868    0.007488    0.002152
C      -0.071856    1.398767    0.011888
C      -1.163861    2.235979    0.031710
N      -0.716252    3.556293    0.032758
C       0.570231    3.455682    0.014256
O       1.048791    2.193618    0.000619
C      -2.528933    1.882361    0.048796
C      -3.692855    1.577750    0.063345
H       0.290641   -2.248973   -0.013992
H       1.301116    4.249370    0.008439
H      -4.720529    1.310018    0.076182
