15

C      -0.018096    1.544430    0.059226
C      -0.003519    0.053399   -0.061015
C      -0.034154   -0.627093   -1.217109
N      -0.016571   -2.018312   -1.211598
C       0.031484   -2.819383   -0.089617
O       0.044863   -4.028204   -0.144495
C       0.066931   -2.058010    1.239086
O       0.110220   -2.621467    2.308240
N       0.045802   -0.680159    1.124418
H       0.879042    1.913693    0.571146
H      -0.057272    2.007370   -0.928550
H      -0.887563    1.891612    0.630860
H      -0.072845   -0.144465   -2.181763
H      -0.039842   -2.522740   -2.086815
H       0.069629   -0.190772    2.009349
