21

C      -0.053686    1.590318    0.056284
C       1.493936    1.454418    0.016127
C       1.773953    0.782127    1.371244
C       0.698116   -0.359687    1.312897
C       1.337544   -1.753417    1.217597
C       2.213241   -1.867443   -0.006867
C       2.198101   -0.946692   -0.973102
C       1.248795    0.209672   -0.927737
C       0.002047    0.044653   -0.010966
H      -0.500559    2.056320    0.940209
H      -0.467802    2.033521   -0.853092
H       2.139327    2.281571   -0.282587
H       2.790191    0.386256    1.445061
H       1.614772    1.470487    2.206536
H       0.011053   -0.317566    2.163445
H       1.939560   -1.944435    2.116864
H       0.566660   -2.538644    1.210068
H       2.879763   -2.724171   -0.071242
H       2.862656   -1.036231   -1.828850
H       0.972047    0.549012   -1.929729
H      -0.852144   -0.558675   -0.322801
