19

C       0.161421    1.527034   -0.212942
C      -0.119018    0.108275   -0.674071
O       1.084805   -0.654027   -0.524446
C       0.985472   -1.951461   -0.954606
C       0.784039   -3.071646   -0.178134
N       0.804832   -4.152232   -1.017532
C       1.020151   -3.741983   -2.319422
C       1.135454   -2.369236   -2.311707
N       1.299950   -1.477969   -3.390270
H       0.489300    1.535069    0.830594
H       0.948129    1.983303   -0.821128
H      -0.741315    2.139409   -0.298950
H      -0.917070   -0.351364   -0.073366
H      -0.442184    0.089288   -1.723857
H       0.649279   -3.172351    0.885782
H       0.707597   -5.107537   -0.728052
H       1.069473   -4.451557   -3.128973
H       1.778204   -1.902497   -4.175133
H       1.822971   -0.661330   -3.094187
