19

O       0.120339   -0.002396    0.021962
C       0.005170    1.211397    0.087640
N      -1.216062    1.819000    0.006553
C      -1.545878    3.214922    0.285405
C      -1.037856    4.224088   -0.769952
C       0.257940    3.843541   -1.511084
C       1.395630    3.314113   -0.651561
N       1.262677    3.390516    0.805487
C       1.247064    2.062753    0.151799
H      -1.971103    1.152260   -0.049125
H      -2.636763    3.269454    0.338238
H      -1.156688    3.493522    1.265041
H      -1.809525    4.385579   -1.531123
H      -0.896650    5.182662   -0.259900
H       0.034712    3.088438   -2.274625
H       0.607052    4.727650   -2.056761
H       2.388207    3.469913   -1.069989
H       2.164968    3.533261    1.249884
H       2.122804    1.431110    0.260194
