17

C       0.100413    1.193227    0.690293
C       0.053131    0.052600   -0.309378
O       1.000558   -0.230460   -1.009170
C      -1.238172   -0.744620   -0.353586
C      -1.405229   -1.859529   -1.412618
N      -1.615089   -2.923445   -0.360557
C      -0.370507   -2.947165    0.428374
C      -1.347222   -1.871409    0.694332
H       1.109779    1.602336    0.745910
H      -0.596187    1.982730    0.384117
H      -0.221330    0.853500    1.681069
H      -2.100962   -0.075300   -0.302425
H      -2.303118   -1.754813   -2.023202
H      -0.536599   -2.032848   -2.052214
H      -0.336737   -3.769164    1.136518
H       0.572851   -2.718259   -0.061093
H      -1.928930   -1.813564    1.608869
