19

C      -0.104821    1.478256   -0.043596
C      -0.221486   -0.023608   -0.280448
N       1.012255   -0.545371   -0.879552
C       0.975241   -1.951153   -1.114243
C       0.376904   -2.553353   -2.359703
O      -0.139057   -1.639058   -3.265740
C       1.904693   -2.584220   -2.146669
C       2.707925   -1.754664   -2.992962
N       3.333096   -1.085313   -3.701230
H       0.754405    1.704105    0.594182
H       0.025430    2.015294   -0.989874
H      -1.009159    1.864880    0.435197
H      -0.369108   -0.540127    0.676936
H      -1.108076   -0.240741   -0.898548
H       1.197776   -0.055484   -1.749393
H       0.864566   -2.532090   -0.202030
H      -0.132708   -3.515032   -2.305793
H       0.149999   -1.872033   -4.155463
H       2.356475   -3.535947   -1.888562
