16

C      -0.073791    1.514070    0.039523
C      -0.036618    0.012106   -0.017575
C       0.053334   -0.685784   -1.220584
C       0.081747   -2.078463   -1.175797
C       0.177312   -2.920818   -2.417511
N       0.023982   -2.729542   -0.004596
C      -0.060383   -1.970095    1.085958
N      -0.094301   -0.640587    1.152727
H      -0.022762    1.960764   -0.956021
H      -0.992208    1.848759    0.532073
H       0.761736    1.888107    0.639610
H       0.100029   -0.158686   -2.167208
H       1.069979   -3.552843   -2.375084
H      -0.683967   -3.593167   -2.482674
H       0.218761   -2.309621   -3.321932
H      -0.107206   -2.499062    2.035960
