14

N       0.007634    1.328289    0.011330
C      -0.045551    0.067274    0.003876
O       1.083706   -0.758762   -0.007432
C       0.736838   -2.154788   -0.014077
C      -0.755450   -2.112726   -0.005608
C      -1.201691   -0.816946    0.004807
C      -2.611194   -0.914314    0.012002
N      -2.992701   -2.187702    0.006310
N      -1.835732   -2.911309   -0.004507
H       0.977046    1.648312    0.007958
H       1.163074   -2.625335   -0.908777
H       1.172844   -2.636232    0.870056
H      -3.354395   -0.132264    0.020903
H      -1.896659   -3.915246   -0.010372
