20

C       0.398286    0.883273   -0.418370
O      -0.201634    0.089463    0.596462
C       0.588851   -0.866543    1.128703
N       0.133479   -1.660431    1.991258
C       1.018953   -2.643577    2.570021
C       0.566642   -4.143073    2.488614
C       1.953865   -4.502687    1.943654
C       2.192941   -3.784047    0.650098
C       2.375313   -3.030175    1.943918
H       0.651192    0.284235   -1.301997
H      -0.340125    1.635812   -0.697906
H       1.302560    1.387410   -0.055183
H       1.620144   -0.869322    0.748168
H       1.159609   -2.378592    3.623581
H       0.338657   -4.568385    3.467842
H      -0.270206   -4.339523    1.812276
H       2.542376   -5.361769    2.240669
H       3.114494   -4.033569    0.133672
H       1.358325   -3.562342   -0.010579
H       3.334401   -2.604125    2.215449
