22

C       0.040826    1.591058    0.132510
C      -0.043786    0.073132   -0.053289
C       0.660306   -0.480802   -1.324445
C      -0.007543    0.035533   -2.619282
C       2.065692   -0.032115   -1.308005
N       3.155796    0.349453   -1.260926
C       0.691750   -2.040502   -1.287321
C      -0.682780   -2.709000   -1.223641
O       1.395532   -2.443298   -2.454724
H       1.079696    1.928930    0.181683
H      -0.452921    2.129320   -0.681762
H      -0.452900    1.881220    1.064527
H       0.387592   -0.422459    0.824787
H      -1.095656   -0.226946   -0.101033
H       0.126558    1.113864   -2.723274
H       0.429985   -0.453878   -3.490103
H      -1.080896   -0.173073   -2.598413
H       1.262178   -2.321867   -0.388472
H      -0.553461   -3.796983   -1.228858
H      -1.225143   -2.452045   -0.309986
H      -1.295530   -2.443297   -2.088801
H       1.556549   -3.390025   -2.401407
