17

N       0.002428    1.279268   -0.194478
C      -0.031794   -0.081531   -0.025431
N      -1.108602   -0.777487   -0.065090
C      -0.801620   -2.173660    0.241126
C       0.734237   -2.306445    0.365178
O       1.188535   -3.154790    1.383393
C       1.543561   -2.508503   -0.932287
O       1.996828   -1.131560   -0.932663
C       1.243363   -0.842176    0.268768
H       0.856864    1.654979   -0.577354
H      -0.836848    1.675386   -0.594569
H      -1.286485   -2.471258    1.184398
H      -1.214249   -2.831822   -0.533294
H       0.638397   -3.019235    2.162445
H       2.376321   -3.209421   -0.815533
H       0.966112   -2.754100   -1.830624
H       1.870099   -0.420099    1.061441
