21

C       0.074204    1.518605   -0.075568
C      -0.006649   -0.002330    0.003404
C       0.690789   -0.707992   -1.150243
O       0.653434   -0.461086    1.213791
C      -0.073285   -0.453097    2.348924
O      -1.226146   -0.090387    2.418600
C       0.727126   -0.952563    3.495955
C       0.438178   -0.344722    4.857906
C      -0.013746   -1.736361    4.566218
H       1.117854    1.849224   -0.076501
H      -0.400120    1.873381   -0.996061
H      -0.442563    1.973136    0.772410
H      -1.054567   -0.308053    0.067129
H       1.748338   -0.429129   -1.193918
H       0.625392   -1.793582   -1.038318
H       0.222300   -0.429405   -2.098866
H       1.745758   -1.235470    3.264887
H       1.284245   -0.193966    5.518169
H      -0.317237    0.431760    4.879350
H      -1.071759   -1.892745    4.392621
H       0.514270   -2.566909    5.019980
