17

O      -0.345030    0.582832    1.116613
C      -0.205701    1.464837    0.323466
C      -1.165214    2.243495   -0.603633
C      -0.052603    3.319887   -0.770709
C      -0.045092    4.504334    0.182919
C      -0.301392    4.257984    1.665465
C       1.103212    4.281181    1.137477
O       1.741971    3.054574    0.866590
C       0.998148    2.363599   -0.108701
H      -1.369779    1.686573   -1.524058
H      -2.115839    2.552716   -0.164088
H       0.148095    3.637370   -1.793928
H      -0.259979    5.487684   -0.217099
H      -0.627523    5.112743    2.248592
H      -0.714417    3.313636    2.002411
H       1.809741    5.046015    1.437231
H       1.683325    1.829735   -0.776454
