20

C       0.101625    1.502483   -0.159384
C      -0.044706   -0.007753    0.036563
O       0.571188   -0.433432    1.251639
C      -1.495333   -0.503492    0.100900
C      -2.297155    0.123418    1.236793
C      -2.182177   -0.545381   -1.287812
O      -2.082154   -1.979540   -1.353872
C      -1.570926   -2.048782   -0.005410
H       1.158958    1.770456   -0.266899
H      -0.413074    1.840698   -1.064621
H      -0.299223    2.050383    0.697475
H       0.431903   -0.517061   -0.818072
H       1.487521   -0.140349    1.242012
H      -2.445002    1.197447    1.082585
H      -3.287377   -0.337045    1.307648
H      -1.782063   -0.014769    2.191153
H      -3.226161   -0.202982   -1.288541
H      -1.651294   -0.057766   -2.116043
H      -0.616320   -2.582666    0.051830
H      -2.287319   -2.520685    0.679849
