18

C      -0.042247    1.547205   -0.055724
C      -0.027191    0.017741   -0.007016
C       0.661383   -0.595770   -1.227935
C       0.708193   -2.101441   -1.213483
O       0.255239   -2.795853   -0.335073
C       1.410047   -2.836055   -2.398427
O       1.420059   -4.210088   -2.177192
C       0.731121   -2.485098   -3.662776
N       0.195116   -2.187192   -4.642235
H       0.973764    1.956306   -0.085606
H      -0.572708    1.913278   -0.941502
H      -0.541023    1.960680    0.825395
H       0.479209   -0.327660    0.900602
H      -1.050009   -0.368473    0.055268
H       0.169729   -0.286676   -2.160644
H       1.696138   -0.234090   -1.323695
H       2.439922   -2.450631   -2.463117
H       0.872151   -4.338758   -1.382320
