20

C       0.391320    1.666274    0.006331
N       0.144608    0.232516    0.010007
C       1.139663   -0.733563   -0.434796
C       2.557525   -0.335485   -0.811823
C       3.387663    0.222074    0.309533
C       2.999392    0.252851    1.582376
C       1.683698   -0.271985    2.087600
O       1.093070    0.621570    3.038320
C       0.700411   -0.683211    1.000664
H       1.414638    1.980641    0.251435
H       0.148795    2.056986   -0.987657
H      -0.300525    2.138532    0.713260
H       0.723408   -1.511256   -1.074136
H       3.062584   -1.220640   -1.223831
H       2.533502    0.384367   -1.643483
H       4.366377    0.610035    0.035332
H       3.650089    0.661970    2.351478
H       1.884615   -1.174282    2.682268
H       0.954837    1.464796    2.594887
H      -0.028863   -1.411703    1.351910
