14

N       0.056819    1.365596    0.151632
C      -0.039405   -0.020356    0.056782
C      -1.180515   -0.802234    0.035498
N      -0.686505   -2.108896    0.010879
C      -0.997571   -3.462227   -0.028445
C       0.186385   -4.112754   -0.041448
O       1.238874   -3.215148   -0.014420
C       0.668742   -1.993728    0.017012
N       1.125212   -0.771961    0.041539
H       0.962533    1.689637   -0.160651
H      -0.686611    1.862301   -0.319212
H      -2.229549   -0.570235    0.053915
H      -2.002530   -3.845870   -0.040551
H       0.449410   -5.154433   -0.067102
