19

N       0.155432    1.415314    0.175281
C      -0.025775    0.013389    0.073892
C      -1.106121   -0.819786   -0.106295
C      -2.588672   -0.766540   -0.345631
C      -3.016083   -2.237308   -0.047301
C      -1.763424   -3.129419   -0.308135
C      -0.636631   -2.160171   -0.082029
C       0.723063   -2.133183    0.107935
N       1.079294   -0.804552    0.203622
H       0.105849    1.869320   -0.732572
H      -0.567646    1.832216    0.751458
H      -3.126462   -0.052058    0.287596
H      -2.821027   -0.497013   -1.385811
H      -3.290179   -2.315611    1.010190
H      -3.886151   -2.549904   -0.631596
H      -1.744542   -4.006276    0.347404
H      -1.765096   -3.508810   -1.339397
H       1.463900   -2.912743    0.185623
H       1.994793   -0.447384    0.417989
