16

C      -0.650273    1.547140   -0.340850
C       0.011950    0.208259   -0.087905
C       1.006542   -0.357260   -1.191057
C       2.032399   -0.331181   -0.080183
N       3.179939   -0.692111    0.391160
N       3.042532   -0.296900    1.725627
C       1.796136    0.217729    2.089892
O       1.395718    0.561357    3.177931
N       1.190589    0.239115    0.823312
H       0.083065    2.290665   -0.666499
H      -1.414828    1.445480   -1.117732
H      -1.133735    1.915060    0.568600
H      -0.715966   -0.541518    0.235004
H       0.758458   -1.344166   -1.584858
H       1.190249    0.332783   -2.017528
H       3.783685   -0.491392    2.375895
