14

O      -0.081632    0.136150    0.500887
C       0.059929    1.293189    0.214292
C       1.397876    1.936732   -0.007214
N       2.530378    1.375828    0.099049
C       3.529270    2.403066   -0.201938
C       2.703577    3.703652   -0.495187
O       1.323949    3.251469   -0.352349
C       2.971878    4.807377    0.410720
C       3.230969    5.710364    1.159268
H      -0.790402    1.992782    0.086557
H       4.204782    2.531759    0.648127
H       4.130141    2.098053   -1.063990
H       2.819363    4.033375   -1.532092
H       3.451890    6.513300    1.819106
