19

C       0.078631    1.573371   -0.013159
C       0.028702    0.029351    0.040612
C       0.855109   -0.496004    1.236614
C      -1.433161   -0.503511    0.066471
C      -2.249931   -0.065000    1.300022
C      -3.609079   -0.600153    1.257108
N      -4.680623   -1.029548    1.210809
C       0.638083   -0.489602   -1.197299
N       1.115305   -0.896703   -2.168003
H       1.107664    1.918062   -0.141823
H      -0.515574    1.959094   -0.845976
H      -0.302706    2.003373    0.917210
H       0.479541   -0.080624    2.175927
H       0.814783   -1.587021    1.295860
H       1.902284   -0.199774    1.136898
H      -1.948356   -0.166260   -0.837870
H      -1.411748   -1.596624    0.025912
H      -1.778439   -0.408174    2.226700
H      -2.315875    1.026216    1.360983
