18

C       0.015394    1.568407   -0.129358
C       0.047971    0.080271    0.062088
O       0.521120   -0.576093   -1.155009
C       0.520536   -2.004330   -0.881014
C       0.012746   -1.927305    0.544860
C      -0.443317   -2.407498    1.930220
N      -0.598467   -0.881601    2.079379
C       0.677571   -0.696483    1.219674
C      -1.068453   -0.813850    0.604198
H       1.013668    1.948833   -0.365382
H      -0.653593    1.836832   -0.952394
H      -0.338863    2.053852    0.784171
H      -0.149268   -2.515319   -1.580929
H       1.535515   -2.402073   -0.987056
H      -1.389810   -2.951593    2.001761
H       0.307335   -2.837512    2.600007
H       1.668710   -0.642909    1.671821
H      -2.122224   -0.897731    0.335509
