16

O       0.271398    1.515356    0.280749
C       0.026987    0.155696    0.025466
C      -1.458507   -0.138400   -0.264502
C      -1.358221   -1.356528   -1.186875
O      -0.131340   -1.170167   -1.935594
C       0.659861   -0.274967   -1.305827
N       1.745306    0.216689   -1.714317
C       0.535205   -0.710310    1.102144
C       0.932479   -1.425589    1.982510
H       1.140231    1.697349   -0.110505
H      -2.046438   -0.328351    0.633313
H      -1.870547    0.724959   -0.794082
H      -1.282092   -2.293079   -0.624970
H      -2.172972   -1.434648   -1.908516
H       2.018335   -0.140446   -2.629299
H       1.301535   -2.044513    2.763085
