16

C       0.026896    1.492237    0.021862
C       0.013020   -0.019477   -0.009191
O       1.030537   -0.696884   -0.038365
C      -1.291705   -0.676039   -0.006508
N      -2.497444   -0.137070    0.030383
C      -3.373878   -1.180670    0.028466
C      -2.688035   -2.388745   -0.016527
N      -3.122845   -3.705103   -0.114289
N      -1.370383   -2.051558   -0.040963
H       1.059649    1.842090    0.024164
H      -0.506257    1.894393   -0.845025
H      -0.500032    1.859379    0.907775
H      -4.443477   -1.034969    0.059366
H      -4.119352   -3.789917    0.033159
H      -2.631180   -4.351273    0.491250
H      -0.562120   -2.650263   -0.107696
