16

C       0.230343    0.995731    0.675908
N      -0.103094    0.134799   -0.465975
C      -1.332169   -0.546831   -0.373441
C      -2.626152   -0.224180   -0.698948
C      -3.456695   -1.352468   -0.395106
C      -2.626333   -2.317446    0.119360
O      -2.832605   -3.579534    0.581368
N      -1.349005   -1.839523    0.136083
H       1.205796    1.461187    0.503006
H      -0.511645    1.786628    0.865400
H       0.304823    0.384247    1.579932
H      -0.063596    0.667350   -1.326013
H      -2.954475    0.719850   -1.107270
H      -4.524245   -1.434671   -0.530326
H      -3.773468   -3.769030    0.519534
H      -0.531107   -2.368644    0.385316
