18

O      -0.107652    1.459781    0.054576
C      -0.005077    0.050152    0.020817
C       0.692892   -0.583155    1.253066
C       0.049393   -1.962027    1.387432
C       0.815105   -3.221960    1.200369
N       0.278553   -2.854579    2.524577
C      -1.342901   -1.803284    0.845188
O      -1.994983   -0.618614    1.324324
C      -1.385330   -0.582641    0.030338
H       0.779234    1.828431   -0.003724
H       0.499122   -0.281260   -0.902641
H       1.780893   -0.627046    1.151696
H       0.443081    0.030214    2.123887
H       0.347313   -4.091779    0.745729
H       1.884621   -3.140333    1.022229
H       1.019551   -2.483451    3.114827
H      -1.980544   -2.667071    0.680306
H      -2.060450   -0.437350   -0.808363
