19

O       0.021852    1.334415   -0.103263
C       0.034729   -0.074037    0.014809
C       0.116708   -0.565861    1.495777
C      -1.432440   -0.489219    1.543404
C      -1.433753   -0.598683   -0.013133
C      -1.511944   -2.023539   -0.489254
C      -0.902353   -3.052491    0.100824
C      -0.067644   -3.008536    1.361791
O       0.706612   -1.845101    1.616238
H       0.901814    1.658758    0.116688
H       0.740245   -0.548981   -0.678519
H       0.669050    0.087557    2.179449
H      -1.976966   -1.245307    2.111088
H      -1.746089    0.503761    1.869415
H      -2.129402    0.045796   -0.552693
H      -2.088633   -2.208629   -1.391494
H      -1.024268   -4.049185   -0.317508
H      -0.717584   -3.224615    2.226969
H       0.668472   -3.818559    1.327610
