23

C      -0.076497    1.505167   -0.490532
O      -0.315026    0.110487   -0.522406
C       0.729083   -0.623144   -1.114689
C       0.379321   -2.117608   -1.015866
C       0.462761   -2.623914   -2.469414
C      -0.447451   -3.807191   -2.791652
C       0.221425   -1.326957   -3.275152
C      -1.241364   -0.956852   -3.525846
O       0.887727   -0.326358   -2.491149
H       0.834908    1.741596    0.080393
H       0.027486    1.918231   -1.500498
H      -0.933703    1.966371    0.005164
H       1.679382   -0.347093   -0.633271
H       1.054997   -2.652376   -0.344779
H      -0.633372   -2.209755   -0.613360
H       1.500392   -2.919242   -2.667123
H      -1.496476   -3.576710   -2.581323
H      -0.370015   -4.095317   -3.845727
H      -0.174357   -4.680997   -2.191241
H       0.750485   -1.357794   -4.234087
H      -1.812447   -0.921767   -2.594320
H      -1.289828    0.034093   -3.986163
H      -1.716572   -1.671224   -4.205792
