16

C      -0.042780    1.579894   -0.169030
C       1.529061    1.608983   -0.183837
C       1.508843    0.108656    0.176738
C       1.981848   -0.754982    1.313711
O       0.818091   -1.496466    1.707615
C      -0.379514   -0.798680    1.335957
C       0.039718    0.081468    0.190578
O       0.777407   -0.590511   -0.831285
H      -0.465321    2.188600    0.633192
H      -0.557508    1.803961   -1.105174
H       2.017425    1.851613   -1.129431
H       1.943825    2.233186    0.610496
H       2.752833   -1.488045    1.058481
H       2.357181   -0.117604    2.130313
H      -1.127522   -1.559853    1.095039
H      -0.762723   -0.175339    2.159705
