15

O       0.374412    1.245943   -0.441336
C       0.005047   -0.026354    0.013117
C       0.104221   -0.288212    1.553606
N      -1.344711   -0.485676    1.556886
C      -1.536849   -0.154741    0.138865
C      -2.150562   -0.862531    2.565641
O      -1.791733   -1.102764    3.700926
C      -3.568489   -0.973143    2.154557
N      -4.681332   -1.068863    1.858343
H       1.330762    1.273923   -0.546807
H       0.457756   -0.825308   -0.584471
H       0.669545   -1.166934    1.877133
H       0.422945    0.589928    2.124485
H      -2.047846    0.798596   -0.026111
H      -2.015100   -0.941218   -0.450367
