17

C       0.310852    1.300978    0.503999
N      -0.201625    0.128414   -0.234124
H      -0.361315   -0.676509    0.390854
H      -1.064819    0.377466   -0.881937
C       0.638086   -0.397545   -1.335868
C       0.924755   -1.870740   -1.052318
N       1.526494   -2.503689   -2.075744
O       0.612355   -2.361798    0.026896
C      -0.238652   -0.188225   -2.651712
O      -1.329425    0.380675   -2.382290
O       0.248055   -0.602556   -3.701160
H       1.253123    1.052589    0.996301
H       0.463666    2.119365   -0.201620
H      -0.425147    1.603113    1.251321
H       1.566341    0.167582   -1.432769
H       1.413421   -2.058631   -2.988252
H       1.614811   -3.506446   -2.015461
