22

C      -0.677532    1.143107   -0.111258
C       0.210446   -0.090039   -0.135862
C       1.640505   -0.008590   -0.735418
C       2.132291   -0.979382    0.370628
C       0.839095   -0.649329    1.185991
C       1.088341    0.406873    2.272121
C       0.056124   -1.804475    1.798814
N       0.808636   -2.743297    2.447567
O      -1.158647   -1.868541    1.746976
H      -0.178884    2.001333    0.351395
H      -0.956866    1.435525   -1.129692
H      -1.597776    0.939659    0.444863
H      -0.338645   -0.909658   -0.609885
H       1.769775   -0.324546   -1.773154
H       2.074682    0.989717   -0.624045
H       2.148571   -2.017052    0.024107
H       3.089749   -0.753706    0.850117
H       1.639525    1.263467    1.872027
H       0.144973    0.771943    2.688588
H       1.678413   -0.015368    3.092543
H       1.812296   -2.745885    2.404019
H       0.339065   -3.540071    2.845697
