17

C       0.022664    1.523953    0.021517
C       0.017572    0.027534    0.009974
C      -0.007503   -0.798159   -1.100633
N      -0.005527   -0.549206   -2.495676
N      -0.038465   -2.094981   -0.665031
C      -0.021490   -2.131002    0.713605
C       0.010210   -0.826239    1.156832
N      -0.054095   -0.365125    2.490822
H       0.963670    1.942607    0.405484
H      -0.115198    1.922531   -0.988789
H      -0.781521    1.924906    0.650364
H      -0.872062   -0.120074   -2.806527
H       0.747778    0.075755   -2.761837
H      -0.032825   -2.883717   -1.286803
H      -0.046629   -3.062291    1.255603
H       0.146554   -1.102498    3.155588
H       0.595724    0.394649    2.658872
