22

C      -0.010114    1.579659   -0.053309
C       0.045699    0.050727    0.010394
C       0.648255   -0.526338   -1.275443
N       0.839562   -1.967031   -1.185464
C       0.959525   -2.725185   -0.051727
O       1.272178   -3.901112   -0.102024
C       0.613958   -2.030296    1.262015
C       0.789709   -0.502833    1.246597
C       2.275011   -0.114768    1.318491
H       0.985857    2.020218   -0.164599
H      -0.615381    1.915353   -0.902088
H      -0.457807    1.990351    0.857183
H      -0.986703   -0.319320    0.079309
H      -0.015253   -0.309529   -2.121285
H       1.604196   -0.024317   -1.490429
H       1.095470   -2.464529   -2.026710
H      -0.431226   -2.284510    1.480656
H       1.217189   -2.505938    2.039606
H       0.297113   -0.094932    2.138719
H       2.849094   -0.533959    0.485171
H       2.416515    0.969745    1.313727
H       2.719484   -0.499771    2.241523
