13

N      -0.107565    1.320350    0.009235
C       0.073857   -0.016497    0.002295
O       1.127236   -0.610812   -0.008796
N      -1.163643   -0.731851    0.010549
C      -1.295034   -2.088841    0.007501
C      -2.641721   -2.351055    0.017901
C      -3.256247   -1.073810    0.026948
N      -2.364275   -0.095918    0.022563
H       0.704783    1.909947    0.002435
H      -1.041082    1.698195    0.016928
H      -0.420548   -2.716947   -0.001731
H      -3.118334   -3.317554    0.018885
H      -4.310276   -0.835993    0.036431
