18

C      -0.177221    1.533527    0.045715
C      -0.009285    0.050308    0.006633
C       0.752683   -0.807062   -1.067604
C      -0.378015   -1.814649   -0.792766
C      -0.380893   -1.854510    0.704262
C       0.748642   -0.863116    1.036624
C       1.859230   -1.100838   -0.020447
O       2.573496   -2.304604   -0.051175
N      -1.248708   -0.869930   -0.020258
H       0.794421    2.039227    0.056514
H      -0.735560    1.881078   -0.830208
H      -0.731468    1.835370    0.940960
H       0.960546   -0.491573   -2.087844
H      -0.800049   -2.577689   -1.435445
H      -0.805313   -2.650611    1.303820
H       0.952578   -0.602330    2.072980
H       2.599619   -0.294603    0.002463
H       1.928890   -3.021473   -0.071401
