14

C      -0.016121    1.517816    0.055492
C      -0.014283    0.026365    0.014281
C       0.006477   -0.848975   -1.045409
N       0.031914   -0.569070   -2.394144
C       0.052809   -1.465086   -3.455261
O       0.052010   -2.661654   -3.365000
O      -0.000931   -2.093986   -0.609811
N      -0.028819   -1.987637    0.853320
N      -0.034964   -0.766412    1.131390
H       0.878451    1.946902   -0.411302
H      -0.893380    1.945644   -0.444162
H      -0.035665    1.845474    1.096593
H       0.035677    0.412102   -2.630970
H       0.070644   -0.913129   -4.414363
