17

O       0.058861    1.361740    0.219130
C       0.017935   -0.017941   -0.113997
C      -1.386529   -0.534705   -0.146859
O      -2.007463   -0.835325    1.126110
C      -1.871511   -1.881096    0.147186
C      -3.027079   -1.959026   -0.886610
C      -3.766382   -0.613321   -0.716752
C      -2.398715   -0.152498   -1.264096
O      -2.361673   -1.387039   -2.070215
H      -0.315205    1.450640    1.102732
H       0.463598   -0.105691   -1.110245
H       0.614324   -0.624385    0.582691
H      -1.259917   -2.733297    0.422597
H      -3.513179   -2.916277   -1.067901
H      -4.544929   -0.501604   -1.470049
H      -4.086921   -0.293940    0.272489
H      -2.228682    0.760533   -1.831492
