20

C       0.129152    1.407701   -0.550380
C       1.408879    1.638425    0.298443
C       1.317448    0.160463    0.796829
C      -0.135000    0.099130    0.244333
C       2.269427   -0.759765    0.043446
O       3.629196   -0.548117    0.454698
C       3.801703   -0.315625    1.780188
N       2.937131   -0.127666    2.682508
C       1.528953   -0.094718    2.286952
H      -0.642577    2.178489   -0.500097
H       0.351168    1.219178   -1.603954
H       2.322361    1.919105   -0.231842
H       1.250013    2.352263    1.111420
H      -0.874110    0.232261    1.040376
H      -0.408178   -0.793425   -0.327454
H       2.009278   -1.811981    0.223647
H       2.255752   -0.582339   -1.035338
H       4.864956   -0.300072    2.013847
H       1.031279    0.681930    2.880108
H       1.059584   -1.045669    2.578635
