21

C      -0.075107    1.575663    0.028858
C       0.014434    0.042112    0.007834
C       0.667289   -0.478807   -1.281499
C       0.939581   -1.991183   -1.236857
C       1.539537   -2.534869   -2.533500
C       1.803241   -2.339525   -0.020109
O       2.613794   -3.245524   -0.033562
C       1.562723   -1.537998    1.199768
C       0.740078   -0.482269    1.219604
H       0.922979    2.026054    0.001179
H      -0.634321    1.942987   -0.837248
H      -0.580323    1.932710    0.932224
H      -1.016209   -0.348507    0.053839
H       0.034337   -0.239594   -2.143791
H       1.618107    0.050864   -1.434890
H      -0.023729   -2.496865   -1.055389
H       2.476666   -2.021593   -2.774122
H       1.764557   -3.598545   -2.437145
H       0.848724   -2.391464   -3.370003
H       2.089462   -1.871538    2.088781
H       0.572527    0.049257    2.155478
