16

C       0.051326    1.481750    0.392663
C       0.000190    0.039408    0.062784
C      -0.955471   -0.812626   -0.385991
O      -2.242283   -0.530000   -0.673919
N      -0.438273   -2.087533   -0.527964
C       0.802655   -1.966889   -0.164719
C       1.803997   -3.076787   -0.117908
O       1.263050   -4.267208   -0.633287
O       1.152381   -0.727431    0.205592
H       0.778706    2.019138   -0.227007
H      -0.934220    1.919093    0.216105
H       0.317688    1.654508    1.442015
H      -2.651113   -1.349969   -0.973865
H       2.694163   -2.789454   -0.696357
H       2.139039   -3.212478    0.923822
H       0.317344   -4.113675   -0.758851
