22

C      -0.063448    1.536050    0.070571
C      -0.053708    0.012838   -0.104665
C      -1.455579   -0.595416   -0.006630
O      -2.322749    0.022059   -0.953115
N       0.653024   -0.403960   -1.326242
C       0.308130    0.231903   -2.592898
C       1.681924   -1.305253   -1.196365
C       2.467299   -1.649437   -2.455432
O       1.967769   -1.823075   -0.126078
H       0.955531    1.932047    0.039910
H      -0.659114    2.035125   -0.696984
H      -0.497862    1.792112    1.041851
H       0.523913   -0.436216    0.706001
H      -1.383322   -1.678246   -0.180016
H      -1.828144   -0.441196    1.018693
H      -3.176815   -0.417095   -0.912874
H       0.886348    1.148335   -2.775463
H       0.481750   -0.450250   -3.425941
H      -0.752403    0.481127   -2.583990
H       2.844201   -0.759192   -2.967597
H       3.304850   -2.276703   -2.152456
H       1.852654   -2.206485   -3.170501
