17

C      -0.580995   -1.121094   -0.754912
C      -0.253426   -0.018711   -0.405545
C       0.125858    1.315497    0.024745
C      -0.192014    1.708701    1.491959
C       1.331250    1.849574    1.642193
C       2.019852    3.127822    2.154008
O       2.612168    2.410391    3.255764
C       2.145714    1.145545    2.741431
O       1.550503    1.459808    0.278542
H      -0.865266   -2.095163   -1.069217
H      -0.204427    2.054062   -0.715608
H      -0.764266    2.630223    1.607933
H      -0.644916    0.915079    2.086545
H       2.769844    3.517351    1.453254
H       1.368922    3.944217    2.490513
H       1.582480    0.573628    3.488804
H       2.958884    0.528538    2.338116
