18

C      -0.028997    1.420955   -0.288976
C       1.258344    0.725038    0.006601
C       2.015904    0.889335    1.295707
C       1.490366    1.500476    2.571571
O       0.068064    1.426999    2.657504
C       0.134999   -0.030086    2.513427
C      -0.553214   -0.516716    1.241193
N      -0.010424   -0.020187   -0.024185
C       1.668804    0.011963    2.487304
H      -0.425057    2.080773    0.474757
H      -0.269318    1.689825   -1.315274
H       1.908023    0.483123   -0.832979
H       3.084501    1.040822    1.169647
H       1.992835    2.274382    3.139606
H      -0.288129   -0.513391    3.399604
H      -0.482889   -1.613267    1.229718
H      -1.618532   -0.263922    1.285472
H       2.344044   -0.673024    2.980594
