18

O      -0.216114    1.455534   -0.066087
N      -0.008418    0.066575    0.020388
C      -1.108902   -0.559050   -0.005959
C      -2.569683   -0.206701   -0.192565
C      -2.831632   -1.723015   -0.458215
C      -1.364699   -2.058332   -0.010622
C      -0.516159   -2.905642   -0.917981
C       0.616026   -3.692868   -0.418631
O      -0.622852   -4.322820   -0.753072
H       0.684607    1.796532   -0.049900
H      -3.038081    0.175349    0.720143
H      -2.786677    0.492728   -1.003671
H      -3.623471   -2.191277    0.127097
H      -2.998328   -1.942081   -1.515479
H      -1.339130   -2.481324    0.999970
H      -0.487531   -2.579805   -1.959328
H       1.451062   -3.918222   -1.080026
H       0.857697   -3.668918    0.643057
