16

C      -0.076310    1.527715    0.011492
C      -0.015025    0.011961    0.003949
O      -1.348368   -0.487771    0.011496
C      -1.463906   -1.833232    0.006351
C      -0.502541   -2.803778   -0.005336
O      -1.100202   -4.036474   -0.006286
C      -2.437890   -3.831474    0.004853
C      -2.730398   -2.506415    0.012955
H       0.934957    1.944909    0.005809
H      -0.608860    1.896117   -0.869561
H      -0.595495    1.887858    0.903862
H       0.508510   -0.359764   -0.889423
H       0.521663   -0.368093    0.885935
H       0.572159   -2.798729   -0.013542
H      -3.048871   -4.719174    0.005573
H      -3.703863   -2.043785    0.022428
