21

C      -0.039668    1.529404   -0.049415
C      -0.005779    0.007819    0.024440
O       0.598098   -0.428946   -1.198524
C       0.711975   -1.814835   -1.367257
O       1.832334   -2.393240   -0.744346
C       1.989870   -2.161536    0.647054
C       0.673900   -2.044044    1.462276
C       0.746675   -0.502284    1.266947
C       2.272888   -0.672187    1.004459
H       0.974694    1.939888   -0.027966
H      -0.517003    1.850617   -0.978727
H      -0.599653    1.943370    0.794042
H      -1.039299   -0.377682    0.060034
H      -0.218183   -2.308341   -1.038700
H       0.860343   -1.992396   -2.435183
H       2.722293   -2.901654    0.975827
H      -0.211690   -2.584256    1.117350
H       0.857103   -2.317203    2.504945
H       0.452113    0.100054    2.130809
H       2.857409   -0.587140    1.924563
H       2.727193   -0.068064    0.218184
