16

N       0.388931    1.104937   -0.840315
C      -0.066696    0.417553    0.245614
O       0.523238    0.371030    1.306310
C      -1.408110   -0.250440    0.045822
O      -1.536846   -1.545922    0.654384
C      -2.257554   -0.484882    1.220767
C      -2.142263   -0.003624    2.659847
O      -3.589246    0.088461    2.739626
C      -3.770359   -0.438027    1.409841
H       1.299506    1.531599   -0.779028
H      -0.031659    1.008295   -1.748102
H      -1.875748   -0.165828   -0.936241
H      -1.727922   -0.749192    3.347422
H      -1.649663    0.958960    2.820092
H      -4.332028    0.245874    0.761685
H      -4.250113   -1.425393    1.405378
