23

C       0.050791    1.461995   -0.396622
C      -0.179324    0.170940    0.398218
C      -1.402762   -0.588051   -0.075426
C      -1.320425   -1.559274   -1.230286
C      -1.613338   -2.066006    0.164848
C      -0.621177   -2.933831    0.929029
C      -0.896394   -4.409708    0.639827
C      -0.144721   -5.030892   -0.522883
O      -1.698506   -5.034469    1.294696
H       0.934159    1.998130   -0.036228
H       0.195072    1.247483   -1.460658
H      -0.807699    2.136917   -0.309365
H       0.710682   -0.463832    0.319433
H      -0.288180    0.412342    1.463837
H      -2.315471    0.003257   -0.032603
H      -2.109713   -1.575067   -1.973883
H      -0.330020   -1.753671   -1.633517
H      -2.643466   -2.357016    0.352931
H       0.406791   -2.676489    0.655823
H      -0.744920   -2.781254    2.006133
H       0.927995   -5.061299   -0.296980
H      -0.506519   -6.043239   -0.706728
H      -0.261913   -4.419214   -1.423911
