14

O       0.248050    0.335750    0.715496
C       0.375571    1.508626    0.561641
O       0.818443    2.040024   -0.608686
C       0.984103    3.451718   -0.660486
C       2.382321    3.850723   -0.231116
C       2.601671    5.094516    0.536084
O       2.608823    3.824972    1.181277
C       3.469270    3.330906   -1.042921
N       4.322216    2.935641   -1.713919
H       0.145294    2.278960    1.320473
H       0.799011    3.747833   -1.695783
H       0.261818    3.957849   -0.009420
H       3.565442    5.592849    0.467032
H       1.746909    5.732542    0.754020
