12

C      -0.113541    1.436776    0.043804
C      -0.028160   -0.009954   -0.014575
C       0.045630   -1.211606   -0.064313
C       0.122610   -2.612485   -0.118316
N       1.115894   -3.305336   -0.565246
O       0.705408   -4.646091   -0.403926
C      -0.540052   -4.679267    0.143516
O      -1.181193   -5.637460    0.411809
O      -0.921561   -3.364659    0.330241
H       0.687185    1.848578    0.667015
H      -0.021940    1.872239   -0.956749
H      -1.072383    1.752338    0.467163
