12

O       0.004924    0.004382    0.004415
C      -0.037586    1.200372    0.011066
C      -1.275027    2.097321    0.032288
C      -0.701543    3.485524    0.031404
C       0.647841    3.520963    0.013378
C       1.457621    4.688035    0.008226
N       2.132695    5.627759    0.003771
C       1.208140    2.137531   -0.001051
O       2.354920    1.786518   -0.018270
H      -1.914609    1.906164   -0.838059
H      -1.890722    1.897472    0.917783
H      -1.327229    4.370839    0.044201
