19

C      -1.791282    0.579903    1.296233
C      -0.922626   -0.639382    1.131225
O       0.181065   -0.576351    0.211406
C       0.471217   -0.781614    1.588656
C       1.302515    0.241439    2.324531
C       1.507421   -0.027239    3.814470
C       2.643082   -0.255655    2.868204
C       1.271770    1.612335    1.890076
C       1.306083    2.768362    1.558650
H      -1.201525    1.489302    1.405194
H      -2.446906    0.690959    0.425779
H      -2.429620    0.462887    2.179158
H      -1.483118   -1.574532    1.048523
H       0.794616   -1.799174    1.827346
H       1.541841    0.834738    4.469109
H       0.996643   -0.891019    4.227156
H       2.920446   -1.275896    2.625421
H       3.462623    0.452139    2.866264
H       1.322345    3.783139    1.246926
