20

C      -0.041863    1.486930   -0.220552
C       0.046770    0.027044    0.170572
N       1.224557   -0.843764   -0.049846
C       2.449596   -0.021471    0.260464
C       2.024719    0.170114    1.727297
O       2.012293    1.508805    2.178106
C       0.706929   -0.535853    1.370983
C       0.133371   -1.653804    2.196497
O       1.101326   -2.659477    2.455867
H       0.731004    2.100594    0.238846
H       0.010353    1.591605   -1.310141
H      -1.010815    1.883053    0.101230
H      -0.845766   -0.531933   -0.109753
H       3.349018   -0.624766    0.126609
H       2.543384    0.895229   -0.326815
H       2.609009   -0.468978    2.399269
H       1.751749    1.517412    3.104670
H      -0.190599   -1.282280    3.176553
H      -0.752728   -2.070965    1.693763
H       1.432744   -2.933419    1.591685
