23

C      -0.211988    1.565715    0.040850
C       0.048284    0.057806   -0.012908
C       0.993912   -0.506831   -1.109292
C       2.273009    0.271451   -0.740255
C       2.411637   -0.439059    0.629314
C       2.727789   -1.844230    0.060971
C       1.317226   -2.002689   -0.557645
C       0.545991   -2.064015    0.785475
C       0.873887   -0.593356    1.132839
H       0.649019    2.149883    0.373152
H      -0.520969    1.950578   -0.938280
H      -1.025247    1.773058    0.744875
H      -0.933179   -0.422595   -0.070399
H       0.645336   -0.451634   -2.141398
H       3.132159    0.076902   -1.386544
H       2.122738    1.349989   -0.713896
H       3.106891   -0.016609    1.354385
H       3.557604   -1.821582   -0.649405
H       2.938505   -2.618993    0.802067
H       1.163077   -2.813752   -1.269185
H      -0.529169   -2.243048    0.714936
H       0.967238   -2.814152    1.459190
H       0.674698   -0.253074    2.149627
