22

C      -0.526296    0.815365   -1.541930
C       0.374917   -0.207387   -0.870901
C       1.891472   -0.196103   -1.191638
C       2.220602   -0.453679    0.310250
C       2.447422   -1.937953    0.608137
C       3.330325    0.398699    0.913596
C       0.725095   -0.051036    0.657034
C       0.553334    1.292897    1.181196
N       0.421372    2.368124    1.588193
H      -0.159713    1.834317   -1.384739
H      -0.568210    0.632777   -2.621063
H      -1.548979    0.765482   -1.153398
H      -0.036346   -1.210709   -1.014896
H       2.256250   -0.935607   -1.909465
H       2.225270    0.795834   -1.512495
H       3.402190   -2.269286    0.185565
H       2.476136   -2.122444    1.687715
H       1.659737   -2.567005    0.180156
H       3.160843    1.464954    0.741934
H       3.410691    0.243395    1.995337
H       4.294002    0.131198    0.465622
H       0.210442   -0.747513    1.325278
