14

C      -0.061539    1.457533   -0.006090
C       0.014656   -0.030586   -0.024763
N       0.048653   -0.794316   -1.100511
C       0.116189   -2.083676   -0.651606
O       0.167606   -3.162877   -1.482564
C       0.124207   -2.119744    0.713095
O       0.178426   -3.106365    1.646411
N       0.058679   -0.799759    1.108585
H       0.801419    1.910558    0.497135
H      -0.081366    1.814581   -1.036736
H      -0.964805    1.820116    0.499720
H       0.143346   -2.812718   -2.380174
H       0.221460   -3.945498    1.175575
H       0.048742   -0.485080    2.064217
