16

O      -0.088250    1.343116    0.072304
C       0.000323   -0.054532   -0.021754
C      -0.618549   -0.872330    1.102840
C      -1.329194   -0.752869   -0.220951
C      -2.589510    0.088483   -0.352062
C      -3.772929   -0.615011    0.144028
N      -4.700321   -1.180881    0.537580
C       1.168677   -0.553776   -0.699767
C       2.163197   -0.951894   -1.246313
H       0.654673    1.651540    0.603224
H      -0.165493   -1.820129    1.366855
H      -1.010954   -0.294150    1.932729
H      -1.302608   -1.628236   -0.860392
H      -2.470776    1.025815    0.198046
H      -2.757990    0.359732   -1.400414
H       3.035255   -1.304852   -1.739366
