14

O      -0.055824   -0.081326   -0.270688
C      -0.002055    1.073374    0.060896
C       1.267930    1.892727    0.028957
C       1.102632    3.206853   -0.796438
N       0.836977    3.934692    0.462626
C       1.457568    2.854873    1.251790
C       0.795394    2.538127    2.520197
N       0.287324    2.283295    3.526261
H      -0.904948    1.631827    0.390499
H       2.113292    1.250971   -0.213101
H       2.036052    3.479349   -1.305811
H       0.280036    3.241910   -1.517558
H       1.254707    4.852835    0.563887
H       2.529587    2.989471    1.454353
