21

O      -0.103545    1.450709   -0.152636
C      -0.005121    0.040401    0.037537
C      -1.434389   -0.506987    0.024852
O      -2.061142   -0.123898   -1.193589
C      -1.443926   -2.040394    0.064023
C      -2.878713   -2.563365    0.221018
C      -3.552417   -1.894606    1.419035
O      -3.537018   -0.482424    1.303687
C      -2.227083    0.036924    1.236061
H       0.764924    1.795612   -0.375824
H       0.559089   -0.429325   -0.780455
H       0.495721   -0.197565    0.987895
H      -1.873134    0.816804   -1.302436
H      -0.984622   -2.424333   -0.852691
H      -0.829470   -2.378548    0.909085
H      -3.449286   -2.330399   -0.683002
H      -2.881546   -3.651497    0.350438
H      -4.604959   -2.182226    1.496324
H      -3.048497   -2.201409    2.354219
H      -1.672144   -0.194604    2.163916
H      -2.322771    1.122935    1.161719
