20

C      -0.134360    1.485301    0.117663
C      -0.221657   -0.027610   -0.084470
O      -1.564986   -0.474912   -0.226502
C       0.646759   -0.517344   -1.247929
C       0.294570    0.029378   -2.618416
N       2.049870   -0.710107   -0.896695
C       1.233330   -1.905330   -1.218246
C       1.015999   -2.885056   -0.116867
O       0.756531   -4.046187   -0.311934
H       0.906035    1.794679    0.253677
H      -0.542985    2.032829   -0.739888
H      -0.704406    1.774592    1.004399
H       0.145179   -0.508435    0.825804
H      -2.019555    0.119271   -0.832458
H       0.446881    1.112703   -2.667675
H       0.911622   -0.431432   -3.395269
H      -0.752006   -0.179323   -2.863013
H       2.662968   -0.491181   -1.678404
H       1.360613   -2.383415   -2.186927
H       1.132176   -2.475668    0.908959
