25

C       0.212730    1.525289   -0.092191
C       0.090069   -0.006246    0.004984
C       0.755777   -0.645957   -1.222186
C       0.651039   -0.531075    1.344237
C      -0.002045    0.134221    2.556874
C       0.801214   -2.065914    1.529674
C       2.288486   -1.753106    1.796461
C       3.350640   -2.455611    0.975349
O       2.102475   -0.368825    1.413796
H       1.254134    1.832714    0.049761
H      -0.108683    1.872088   -1.079137
H      -0.398702    2.041639    0.651706
H      -0.977661   -0.270645   -0.004341
H       1.830160   -0.441299   -1.222241
H       0.614712   -1.729546   -1.264568
H       0.330476   -0.228874   -2.140309
H      -1.091699    0.020355    2.526793
H       0.361135   -0.321907    3.482550
H       0.234814    1.199642    2.597037
H       0.235469   -2.498704    2.356759
H       0.632109   -2.661489    0.631810
H       2.548205   -1.815414    2.863563
H       3.097313   -2.446853   -0.088608
H       4.318691   -1.960125    1.102070
H       3.456303   -3.496651    1.300683
