20

C      -0.240134    1.574066    0.065898
C       0.008222    0.081330    0.007068
C       1.320305   -0.554969   -0.414750
C       2.578473    0.242140   -0.622627
O       3.734966   -0.427923   -0.081500
C       3.822162   -0.652306    1.257235
N       3.027997   -0.502910    2.226599
C       1.650157   -0.024234    2.108978
C       0.835376   -0.692906    1.012134
H       0.615396    2.141853    0.438934
H      -0.483851    1.965384   -0.927889
H      -1.086673    1.795125    0.725040
H      -0.860895   -0.465196   -0.351440
H       1.252001   -1.437327   -1.044371
H       2.809701    0.359880   -1.684467
H       2.515536    1.243318   -0.187705
H       4.820022   -1.046863    1.454539
H       1.165431   -0.215299    3.072424
H       1.651948    1.066656    2.001262
H       0.454584   -1.671693    1.288646
