17

C      -0.127414    1.450045   -0.207298
O      -0.089747    0.137872    0.310839
C      -1.278363   -0.574366    0.120851
C      -1.413863   -1.192296   -1.308517
C      -0.907034   -2.520217   -0.724484
O      -0.454085   -3.519637   -1.186295
C      -1.135690   -2.011854    0.733781
C      -0.168839   -2.282325    1.767881
C       0.641940   -2.532784    2.618484
H       0.833878    1.912827    0.025183
H      -0.272406    1.463137   -1.297820
H      -0.932341    2.041613    0.255120
H      -2.144864   -0.002666    0.477323
H      -2.443697   -1.269818   -1.671635
H      -0.790440   -0.751494   -2.089202
H      -2.133806   -2.360793    1.033002
H       1.364581   -2.746443    3.366417
