19

O       0.214309    1.172941   -0.308013
C      -0.071133   -0.089281    0.260191
C      -1.554265   -0.413606    0.175564
O      -1.892362   -0.421745   -1.204129
C      -3.262520   -0.577164   -1.460031
C      -4.183620    0.665675   -1.215241
C      -4.686605    0.489140   -2.657932
O      -5.617819    0.923179   -3.269361
C      -3.591934   -0.542370   -2.973549
H      -0.177862    1.158985   -1.188665
H       0.500464   -0.892901   -0.230611
H       0.237304   -0.049451    1.309811
H      -1.770980   -1.391861    0.634076
H      -2.135376    0.355099    0.706762
H      -3.648224   -1.477573   -0.962702
H      -4.937309    0.623997   -0.425856
H      -3.595714    1.583985   -1.105808
H      -2.768471   -0.095976   -3.541475
H      -3.904925   -1.466570   -3.463341
