19

O       0.033041    1.378752    0.221719
C       0.009420   -0.016174    0.068458
C      -0.436740   -0.799818    1.290892
C      -1.290759   -0.737978    0.066981
C      -2.737395   -0.272324   -0.178020
C      -2.521687   -0.642132   -1.677902
C      -1.897725   -1.811746   -0.842725
O      -1.192418   -2.913146   -1.282293
C      -3.171264   -1.751052    0.066455
H      -0.234081    1.771297   -0.615822
H       0.836351   -0.430549   -0.510037
H       0.091492   -1.718467    1.526020
H      -0.731363   -0.204149    2.149173
H      -3.215470    0.621154    0.213715
H      -3.423298   -0.875257   -2.252409
H      -1.823658   -0.022775   -2.246528
H      -1.778799   -3.464616   -1.811109
H      -3.061918   -2.131327    1.083905
H      -4.116927   -2.057612   -0.391324
