21

C      -0.007177    1.501949   -0.032592
C       0.015421   -0.011469    0.014639
N      -0.336958   -0.690432    1.273863
C       1.067708   -0.709173    0.804657
C       1.617528   -2.038541    0.302897
C       1.765903   -2.059603   -1.232173
C       0.480670   -1.659424   -1.931521
N      -0.760025   -2.098027   -1.275537
C      -0.421430   -0.667010   -1.276673
H       0.562745    1.882364   -0.888164
H      -1.033454    1.877854   -0.126883
H       0.428167    1.929985    0.876002
H      -0.442282    0.006682    2.008441
H       1.771652   -0.071495    1.336306
H       2.588759   -2.242405    0.764658
H       0.931329   -2.832576    0.604657
H       2.562137   -1.371604   -1.548132
H       2.069652   -3.061821   -1.557835
H       0.513899   -1.663099   -3.019566
H      -1.488271   -2.279624   -1.959872
H      -1.006486   -0.022311   -1.930071
