17

C       0.092158    1.455145    0.007066
N      -0.024079    0.013254   -0.006980
C      -0.225358   -0.786513   -1.118413
C      -0.201299   -2.094500   -0.712450
C       0.033373   -2.122663    0.700081
C       0.130051   -3.322753    1.592883
C       0.136288   -0.802557    1.079340
O       0.366979   -0.205384    2.282519
H       1.137045    1.782952   -0.050338
H      -0.451341    1.864916   -0.846919
H      -0.342421    1.852419    0.926643
H      -0.365550   -0.340007   -2.089298
H      -0.340816   -2.956344   -1.348109
H       0.576484   -3.074124    2.564333
H      -0.845891   -3.781955    1.797434
H       0.763639   -4.100272    1.151852
H       0.301646   -0.878732    2.966268
