15

C      -0.016678    1.510524   -0.095706
C       0.004136    0.021542    0.026191
N      -0.005913   -0.740415   -1.058465
N       0.018227   -2.050178   -0.627676
C       0.043798   -2.092000    0.721801
C       0.036346   -0.786340    1.205100
C       0.061208   -0.954208    2.617474
N       0.082313   -2.234407    2.954544
N       0.071316   -2.940636    1.772652
H       0.869050    1.958706    0.368177
H      -0.041242    1.797400   -1.148716
H      -0.893926    1.936961    0.403434
H       0.016004   -2.786676   -1.308877
H       0.065480   -0.209267    3.399446
H       0.083526   -3.943621    1.806184
