21

C       0.060697    1.515421   -0.050161
C       0.008177    0.022653   -0.023351
C       0.836398   -1.007651   -0.779332
C       0.862853   -0.977339    0.744685
C      -0.332299   -1.982069    0.789302
C      -0.705150   -3.034738    1.781028
C      -0.352560   -2.007944   -0.738395
C      -1.196860   -0.985253    0.019992
C      -2.675603   -0.769222    0.027621
H       1.100247    1.861820   -0.076277
H      -0.445051    1.924264   -0.933218
H      -0.410154    1.954871    0.837624
H       1.643322   -0.855400   -1.484927
H       1.690925   -0.795558    1.418954
H      -0.871572   -2.609260    2.778399
H      -1.627332   -3.545059    1.481107
H       0.077930   -3.797342    1.871694
H      -0.672704   -2.797876   -1.406870
H      -3.206804   -1.726642    0.072841
H      -2.995199   -0.174144    0.891791
H      -3.013972   -0.250127   -0.877350
