22

C      -0.008849    1.257415    1.112554
C       0.070884    0.215887   -0.011658
C      -1.248901   -0.546438   -0.156960
C      -1.914806   -1.318605   -1.287962
N      -1.148716   -2.313424   -2.132346
C       0.283933   -2.285805   -1.793788
C      -0.660225   -2.928969   -0.849023
C      -1.556586   -2.009709    0.016904
C      -2.422031   -2.590499    1.097970
H       0.942543    1.784981    1.230821
H      -0.782376    2.005060    0.905440
H      -0.251572    0.784798    2.070483
H       0.327129    0.722292   -0.950705
H       0.890537   -0.474205    0.209476
H      -2.058694    0.021267    0.308101
H      -2.878145   -1.014233   -1.680972
H       0.855681   -2.965032   -2.422330
H       0.782207   -1.350878   -1.589734
H      -0.687869   -4.007690   -0.721882
H      -1.834522   -2.839292    1.990852
H      -3.199462   -1.882033    1.400794
H      -2.917584   -3.509360    0.762767
