21

C      -0.166617    1.471296   -0.009198
C      -0.123964   -0.070351    0.054999
C      -1.474927   -0.630902    0.099926
C      -2.587984   -1.086116    0.112849
C       0.641962   -0.643400   -1.147736
C       2.203245   -0.580013   -1.235662
C       2.268823   -1.743983   -0.202510
C       1.128926   -2.126086   -1.193130
C       2.090254   -1.678493   -2.333275
H       0.848689    1.879055    0.000828
H      -0.663699    1.806124   -0.924698
H      -0.714380    1.882318    0.842701
H       0.383163   -0.350369    0.985580
H      -3.568984   -1.491407    0.136349
H       0.135484   -0.323611   -2.066194
H       2.828424    0.314186   -1.265310
H       3.166351   -2.367387   -0.240609
H       1.998226   -1.529897    0.832566
H       0.502837   -3.018585   -1.170199
H       1.629424   -1.384047   -3.280263
H       2.977136   -2.297419   -2.491879
