14

N       0.156740    1.500346    0.142254
C       0.021966    0.063163    0.003666
C      -1.451474   -0.466535   -0.137083
N      -1.013145   -1.180755   -1.344061
C       0.235927   -0.583254   -1.400482
N       1.193127   -0.464283   -2.211140
C       0.776534   -0.615967    1.056320
N       1.373876   -1.161594    1.880908
H       1.143326    1.744260    0.166914
H      -0.224732    1.949824   -0.686109
H      -1.819391   -1.107712    0.666345
H      -2.152174    0.356526   -0.314471
H      -1.587612   -1.472375   -2.121143
H       1.020304   -0.936435   -3.099689
