17

O       0.656706    0.174066    0.298779
C       0.757375    1.345651    0.498320
O       0.606540    2.258727   -0.490271
C       0.829512    3.628207   -0.144397
C       2.289018    3.966950   -0.186167
C       3.362952    3.618834   -1.249571
C       4.053012    4.178509    0.015107
C       3.005403    5.315822    0.087601
O       3.154603    3.337496    0.846555
H       0.963776    1.804730    1.481838
H       0.278829    4.220924   -0.878946
H       0.427721    3.848321    0.852926
H       3.507022    2.553785   -1.427475
H       3.392703    4.218786   -2.162161
H       5.108499    4.193049    0.281920
H       3.003372    6.068604   -0.704312
H       2.843451    5.733852    1.081799
