18

C       0.223674    1.523768   -0.164684
C      -0.001421    0.048475    0.074974
C      -1.431716   -0.428249   -0.118379
C      -1.658414   -1.917049    0.098932
O      -2.499297   -2.547284   -0.478423
O      -0.845873   -2.555997    0.983155
C       0.070569   -1.827088    1.809592
C       0.776296   -0.702963    1.085608
N       1.113548   -0.830942   -0.337592
H       1.275389    1.776730   -0.012337
H      -0.043712    1.794813   -1.192098
H      -0.385874    2.131194    0.513612
H      -2.087594    0.110504    0.580321
H      -1.803604   -0.201866   -1.121927
H      -0.462721   -1.431083    2.684810
H       0.781225   -2.578766    2.165202
H       1.523330   -0.193139    1.691571
H       0.777014   -1.718620   -0.706022
