19

C       0.203814    1.417790   -0.081558
N       0.406843   -0.020686    0.022091
C       0.562896   -0.692006   -1.021537
O       0.587551   -0.301960   -2.351721
C       0.870144   -1.674139   -2.793279
C       2.170411   -1.757706   -3.562642
C       0.804557   -2.158636   -1.313704
C       2.009780   -2.813955   -0.650505
H       0.946444    1.929770    0.540269
H       0.270803    1.808187   -1.103910
H      -0.781362    1.672713    0.325484
H       0.035186   -2.030796   -3.405228
H       3.008669   -1.370630   -2.977697
H       2.385345   -2.796058   -3.836167
H       2.098559   -1.171739   -4.483763
H      -0.093307   -2.755500   -1.125874
H       2.926375   -2.239755   -0.808718
H       1.843125   -2.876554    0.428335
H       2.168279   -3.828280   -1.030428
