20

N       0.024417    1.213736    0.496961
C      -0.033022    0.024149    0.076733
O      -1.097322   -0.745135    0.364129
C      -1.025362   -2.122285   -0.038899
C      -2.404156   -2.688189   -0.061345
C      -3.093857   -3.178073    1.183122
C      -2.848812   -4.151667    0.065114
C      -3.888950   -3.949691   -1.044234
C      -3.442498   -2.454965   -1.169373
H       0.882222    1.653769    0.170299
H       0.723349   -0.483146   -0.540239
H      -0.558670   -2.186865   -1.032323
H      -0.394758   -2.677038    0.669693
H      -2.453672   -3.290783    2.052471
H      -4.103667   -2.846667    1.414063
H      -2.237835   -5.035967    0.205597
H      -3.673218   -4.522465   -1.948653
H      -4.929199   -4.133056   -0.756854
H      -4.195413   -1.688762   -0.963397
H      -2.986090   -2.240656   -2.139303
