20

C       0.009639    1.487268    0.088300
C       0.010998    0.000029   -0.045447
C      -0.038227   -0.804147   -1.168548
C      -0.045635   -2.153892   -0.716558
C       0.002459   -2.132430    0.650399
C       0.083250   -3.477590    1.295742
C      -0.269530   -4.394659    0.077598
C      -0.013726   -3.567797   -1.226451
N       0.046413   -0.827431    1.065849
H       0.893277    1.858774    0.623422
H       0.009348    1.947014   -0.902767
H      -0.873824    1.859605    0.623645
H      -0.072667   -0.439865   -2.184969
H       1.089462   -3.692444    1.684605
H      -0.612204   -3.628536    2.130299
H       0.291241   -5.333027    0.094359
H      -1.331316   -4.653622    0.131068
H      -0.767342   -3.788444   -1.990902
H       0.959444   -3.818833   -1.671129
H       0.063164   -0.503887    2.017526
