17

C       0.013404    1.359818    0.084665
O      -0.036900   -0.046044   -0.021565
C       0.655453   -0.539334   -1.138155
C       0.595450   -2.070877   -1.098066
C       1.195391   -2.711338   -2.374413
O       1.111999   -4.115500   -2.365020
C       1.295108   -2.601906    0.075145
N       1.889939   -3.072064    0.947928
H       1.048010    1.722240    0.182045
H      -0.445638    1.850234   -0.787719
H      -0.545208    1.635421    0.981362
H       0.195389   -0.189029   -2.077868
H       1.704284   -0.199955   -1.136492
H      -0.455658   -2.371584   -1.024296
H       0.614119   -2.372151   -3.237069
H       2.229967   -2.359111   -2.504802
H       1.666583   -4.444869   -1.647949
