18

O       0.026795    0.057011   -0.026160
C       0.035357    1.256420    0.001710
C      -1.151079    2.251654    0.077470
N      -0.428531    3.559414    0.096699
C       0.611127    3.302007   -0.983808
C       1.206767    2.236589   -0.012825
C       0.683080    3.223141    1.049006
C       1.417233    4.259527    1.824288
C       0.588486    3.193346    2.533059
H      -1.814748    2.177877   -0.788519
H      -1.740430    2.111696    0.986919
H       0.205938    2.972679   -1.944470
H       1.249481    4.177102   -1.110558
H       2.215420    1.830683   -0.055798
H       2.498210    4.194873    1.889215
H       1.018307    5.268025    1.804608
H      -0.346726    3.508158    2.984253
H       1.110008    2.409137    3.071780
