23

C      -0.252422    1.722945    0.202845
C      -0.180364    0.193087    0.145950
C      -1.547840   -0.510384    0.042550
C      -2.267110   -0.175532   -1.272564
C      -1.411125   -2.039994    0.173592
C      -1.030862   -2.533928    1.585210
N      -2.057958   -2.161424    2.561739
C      -0.770205   -3.990768    1.554248
N      -0.602075   -5.135082    1.556801
H       0.743197    2.153985    0.346851
H      -0.662645    2.149945   -0.716957
H      -0.882125    2.056707    1.035115
H       0.444199   -0.115356   -0.704396
H       0.341365   -0.155532    1.045585
H      -2.171122   -0.164163    0.876216
H      -1.681396   -0.507742   -2.138501
H      -3.243466   -0.668609   -1.323761
H      -2.436885    0.899131   -1.378865
H      -2.360324   -2.518483   -0.099604
H      -0.665830   -2.412467   -0.539506
H      -0.096457   -2.053517    1.895950
H      -2.922285   -2.654885    2.353999
H      -1.778108   -2.451251    3.493930
