15

N       0.252548    1.358391   -0.003476
C      -0.011920   -0.067206    0.044462
C      -1.486182   -0.457025   -0.029909
O      -2.406075    0.316791   -0.120073
O      -1.632016   -1.796873    0.019029
C      -2.997493   -2.262505   -0.044779
C      -3.000933   -3.713212    0.017777
C      -3.038362   -4.912059    0.067321
H      -0.148144    1.742982   -0.854602
H      -0.252149    1.816161    0.750599
H       0.510305   -0.574213   -0.775219
H       0.401259   -0.495383    0.965170
H      -3.565200   -1.826579    0.784284
H      -3.457230   -1.902549   -0.971461
H      -3.068686   -5.972869    0.111245
