17

N      -0.011637   -0.639630   -1.205258
C      -0.011297    0.307890   -0.544655
C       0.003806    1.503499    0.298824
C       1.395104    2.108749    0.404423
O       1.886270    2.851939   -0.713439
C       1.629616    3.558902    0.506085
C       0.531562    4.580909    0.461575
C       0.619896    5.708388   -0.499497
N      -0.370489    4.634451   -0.696931
H      -0.712258    2.232242   -0.089414
H      -0.335609    1.222609    1.303459
H       2.137023    1.439904    0.840936
H       2.529993    3.873364    1.036949
H       0.045347    4.756163    1.419797
H       0.207042    6.677542   -0.236510
H       1.478508    5.737258   -1.164923
H      -0.000999    4.000385   -1.404776
