19

C      -0.120965    1.513116   -0.048418
C      -0.047284    0.020939   -0.031231
C       0.054700   -0.842547   -1.091010
N       0.083100   -2.106302   -0.536689
C      -0.006527   -1.963645    0.818416
C       0.042421   -3.113934    1.770797
C       1.429775   -3.279008    2.419885
O       1.481899   -4.379064    3.310712
N      -0.083189   -0.691720    1.150398
H       0.709273    1.956008    0.512575
H      -0.084505    1.897833   -1.071373
H      -1.046948    1.867634    0.417268
H       0.100087   -0.684637   -2.155845
H       0.142676   -2.975066   -1.040542
H      -0.699266   -2.943569    2.559470
H      -0.226180   -4.049256    1.267293
H       2.178760   -3.482582    1.647163
H       1.711289   -2.336115    2.908806
H       0.934405   -4.166718    4.073335
