22

C      -0.360974    1.445180   -0.046944
C      -0.043715   -0.051833   -0.029052
C       0.765257   -0.505931   -1.251117
C       1.052365   -1.993956   -1.238983
O      -0.181554   -2.790319   -1.373666
C       0.279851   -3.392378   -2.523921
N      -0.270656   -4.216728   -3.292546
C       1.626426   -2.695412   -2.504482
C       2.019234   -1.895030   -3.740139
H       0.554908    2.046875   -0.059701
H      -0.945593    1.715312   -0.933240
H      -0.939231    1.738548    0.834458
H       0.512234   -0.300765    0.884538
H      -0.973644   -0.630331    0.010300
H       0.224420   -0.244831   -2.168445
H       1.723784    0.029913   -1.285712
H       1.557441   -2.281147   -0.310102
H      -1.211457   -4.452836   -2.971887
H       2.426409   -3.395742   -2.245695
H       1.235346   -1.195734   -4.041838
H       2.939629   -1.328313   -3.568142
H       2.191438   -2.577729   -4.576708
