20

C      -0.154580    1.618375    0.115473
C      -0.014592    0.113442    0.010149
C       0.830535   -0.544587   -1.084439
C       2.126705   -0.214364   -0.285408
N       1.096096   -0.525423    0.848655
C       1.087333   -1.742752   -0.125349
C       2.622070   -1.674605   -0.249995
C       3.306256   -2.267197   -1.462508
O       3.349206   -2.047091    0.892789
H       0.786585    2.136590   -0.090896
H      -0.902983    1.983053   -0.596441
H      -0.483338    1.899837    1.121305
H      -0.977512   -0.375132    0.208782
H       0.692130   -0.565547   -2.170091
H       2.704289    0.711292   -0.274302
H       0.428086   -2.591371    0.072534
H       2.781237   -2.011689   -2.386360
H       4.334053   -1.898234   -1.530154
H       3.347564   -3.356887   -1.373324
H       2.886011   -1.657008    1.646601
