21

C      -0.066059    1.402141   -0.143400
C       0.173514   -0.097507    0.012898
C       0.836522   -0.450721    1.328681
O       1.200434    0.332663    2.167451
O       0.976009   -1.790873    1.452511
C       1.623709   -2.257289    2.654121
C       1.591762   -3.782067    2.606382
C       0.172191   -4.350036    2.686549
O       2.284242   -4.256298    1.459826
H       0.873611    1.956096   -0.079881
H      -0.531248    1.616261   -1.109426
H      -0.720769    1.778541    0.646653
H      -0.761574   -0.665641   -0.055120
H       0.809308   -0.486356   -0.792004
H       2.654149   -1.890789    2.665875
H       1.102955   -1.859595    3.530278
H       2.172205   -4.141443    3.464722
H       0.206020   -5.439619    2.612718
H      -0.309239   -4.078934    3.632199
H      -0.445014   -3.964976    1.868870
H       1.878120   -3.826782    0.698032
