14

O       0.025724    1.350744   -0.406637
C       0.015859    0.137398    0.325953
C      -1.345153   -0.516111    0.262045
N      -1.690523   -1.057168   -1.059444
C      -1.528314   -1.991600    0.082688
C      -0.433558   -2.922852    0.040061
C       0.460802   -3.726235    0.034132
H      -0.213867    1.114970   -1.310690
H       0.775243   -0.566280   -0.040513
H       0.265135    0.395467    1.360252
H      -2.131420   -0.002767    0.812705
H      -2.680931   -0.934331   -1.253063
H      -2.441010   -2.402572    0.509609
H       1.256958   -4.428900    0.019280
