17

C      -0.069064    1.577364    0.014455
C      -0.025367    0.061348    0.021796
C       1.204618   -0.656650   -0.613733
O       2.040399   -0.174507    0.514930
C       0.781656   -0.661715    1.142397
C       0.871487   -1.893142    0.231865
C       0.144308   -3.150110    0.007235
N       1.568459   -3.127139    0.454075
H       0.913769    1.989111    0.251495
H      -0.379518    1.952982   -0.966486
H      -0.790587    1.947829    0.750516
H      -0.993246   -0.393920   -0.213054
H       1.618887   -0.577955   -1.620261
H       0.698244   -0.593500    2.226680
H      -0.553125   -3.535482    0.745950
H      -0.076090   -3.439758   -1.017747
H       2.195617   -3.345435   -0.316185
