19

C      -0.440211    1.305372    0.054511
C       0.102316   -0.097109    0.057338
O      -0.512243   -1.028255    0.970076
C       0.877826   -0.708423    1.146798
C       1.815743   -1.758648    0.596182
C       1.239237   -2.067776   -0.806203
C       0.507607   -0.773795   -1.260009
C      -0.691594   -1.072836   -2.131906
O      -0.873653   -0.626478   -3.235747
H       0.275599    1.995873   -0.403593
H      -1.371584    1.364950   -0.518542
H      -0.645999    1.636686    1.075073
H       1.114507   -0.166574    2.059679
H       2.825431   -1.335246    0.531740
H       1.872856   -2.650847    1.227036
H       2.004545   -2.372278   -1.522824
H       0.516113   -2.884704   -0.732191
H       1.171091   -0.103791   -1.817132
H      -1.428678   -1.759539   -1.656381
