19

C      -0.355144    1.487709    0.152200
C       0.151866    0.058863   -0.081650
C       0.916391   -0.493052    1.098019
C       2.250249    0.151942    1.492796
N       2.941586   -0.910877    2.202158
C       2.386150   -2.163128    2.051833
O       2.900511   -3.214386    2.360985
C       1.020841   -1.942010    1.445149
N       0.122618   -1.038264    2.199191
H       0.470374    2.192278    0.301542
H      -0.936182    1.840240   -0.704750
H      -0.997817    1.526580    1.037033
H      -0.697615   -0.603935   -0.274154
H       0.792531    0.026580   -0.972052
H       2.797848    0.467351    0.593439
H       2.109405    1.037511    2.125503
H       3.872542   -0.812558    2.573753
H       0.552946   -2.754735    0.902794
H       0.531371   -0.813747    3.105023
