18

O       0.181890    1.397121   -0.289862
C       0.111926    0.004506   -0.109690
C      -0.594794   -0.818797   -1.161964
C      -1.277055   -0.499171    0.159733
N      -1.636832   -1.542419    1.063826
C      -1.001441   -1.925812    2.085396
O       0.164806   -1.566661    2.673375
C       0.975617   -0.484371    2.188890
C       1.260048   -0.578628    0.694219
H       0.844214    1.576219   -0.967460
H      -0.963512   -0.307854   -2.044407
H      -0.261506   -1.839370   -1.320018
H      -2.053495    0.256489    0.076161
H      -1.420138   -2.740491    2.677118
H       0.491598    0.471165    2.423818
H       1.891991   -0.560207    2.779870
H       1.451482   -1.624825    0.434011
H       2.174706   -0.020137    0.464123
