19

C       0.071761    1.473291   -0.109094
C       0.000246    0.027218    0.035953
C      -0.066462   -1.168359    0.151957
C      -0.122142   -2.613985    0.306015
O      -1.335764   -3.117345   -0.237980
C      -1.433668   -4.511280   -0.151524
C      -1.907487   -5.131164    1.188487
O      -3.037175   -5.745630    0.535422
C      -2.758369   -5.057692   -0.702420
H       0.938256    1.772435   -0.708811
H      -0.824708    1.859779   -0.606045
H       0.151030    1.969256    0.864396
H       0.738313   -3.083535   -0.201174
H      -0.041871   -2.879996    1.373283
H      -0.535989   -4.993686   -0.564219
H      -1.255566   -5.872933    1.663890
H      -2.212211   -4.377258    1.926991
H      -3.482712   -4.261111   -0.912848
H      -2.703279   -5.743918   -1.554257
