14

O      -0.263170    0.514155    0.855134
C       0.283391    0.835788   -0.166888
C       1.467337    1.745079   -0.223185
N       2.269932    1.637455   -1.455738
C       1.504572    2.836159   -1.247329
C       0.461609    3.484122   -2.152325
O       1.030746    4.795186   -1.810948
C       2.009494    4.243546   -1.019473
O       2.895813    4.779966   -0.439027
H      -0.052165    0.478489   -1.165440
H       1.954701    1.952535    0.726020
H       3.256343    1.799298   -1.261135
H       0.571437    3.275380   -3.217778
H      -0.581832    3.423752   -1.839075
