11

N       0.038056    1.400173    0.142242
C      -0.014298    0.026377    0.030313
N      -1.164794   -0.564671    0.013283
O      -1.132186   -1.956037    0.014998
C       0.036521   -2.699194   -0.023901
O      -0.055272   -3.889919   -0.045360
N       1.262935   -2.010111   -0.032641
C       1.226267   -0.731839    0.001321
H       0.787717    1.855455   -0.357892
H      -0.855849    1.857468    0.021535
H       2.173378   -0.187463    0.009485
