15

C      -0.032739    1.456035    0.065504
C       0.058748   -0.032949   -0.075752
C      -0.581737   -0.899615   -1.159049
C      -0.415897   -2.035156   -0.131601
N      -0.328991   -0.965805    1.016551
C       1.145108   -0.827387    0.606014
C       1.098091   -2.201722    0.024090
O       1.865257   -3.115385   -0.072074
H       0.597737    1.956266   -0.677054
H      -1.065079    1.790729   -0.078995
H       0.290738    1.772578    1.061293
H      -1.631677   -0.620951   -1.288502
H      -0.100593   -1.006150   -2.135866
H      -1.099581   -2.875889   -0.050656
H       1.883915   -0.371153    1.252637
