17

C       0.072153    1.527957   -0.120707
O       1.527849    1.382084    0.098505
C       1.287736    0.123724    0.613970
N       1.789433   -0.470848    1.604095
C       0.758617   -1.399291    2.149635
C      -0.499126   -0.517354    2.414117
N      -0.957276   -0.762672    0.986771
C      -0.159411   -2.069346    1.098010
C      -0.097170   -0.009517    0.060468
H      -0.364738    2.142266    0.670800
H      -0.141594    1.940841   -1.107474
H       1.189605   -2.008634    2.943841
H      -1.226736   -0.977213    3.087024
H      -0.328026    0.523606    2.698687
H       0.284510   -2.424699    0.164776
H      -0.795842   -2.847939    1.525912
H      -0.150531   -0.482268   -0.922546
