21

C       0.157542    1.665834    0.082509
C      -0.103127    0.158596   -0.005580
C       0.633614   -0.505367   -1.166046
C       2.197241   -0.633478   -1.114643
C       2.082184   -2.144241   -1.338241
C       1.277583   -2.791547   -0.273862
C       0.520110   -2.029428   -1.339156
C      -0.365801   -2.728187   -2.280019
O      -0.393425   -3.926823   -2.450815
H       1.223646    1.878033    0.218421
H      -0.166761    2.177495   -0.830529
H      -0.379684    2.113623    0.923908
H       0.186409   -0.319302    0.938513
H      -1.179828   -0.023839   -0.120370
H       0.343155   -0.014561   -2.103023
H       2.697818   -0.103137   -1.926330
H       2.669007   -0.346974   -0.168286
H       2.658420   -2.724599   -2.048203
H       1.158309   -3.866113   -0.359928
H       1.297998   -2.406654    0.742286
H      -1.023936   -2.052170   -2.874835
