16

N      -0.099188    1.195217   -0.068974
C      -0.100088   -0.055566   -0.074380
O       0.962026   -0.961444   -0.194021
C       0.052367   -2.063649    0.063937
C      -1.136610   -1.119086    0.091591
C      -0.941884   -2.138185   -1.025102
C      -0.775612   -1.983824   -2.532641
O      -1.626683   -3.135212   -2.751658
C      -1.878214   -3.302097   -1.342454
H       0.843974    1.568451   -0.187890
H       0.384600   -2.842982    0.736857
H      -2.020819   -1.079094    0.711443
H      -1.200241   -1.069932   -2.964615
H       0.238588   -2.136736   -2.917765
H      -1.565148   -4.288537   -0.976850
H      -2.934142   -3.141790   -1.088674
