18

C      -0.121204    1.468428   -0.076725
C       0.036255   -0.053226    0.060688
C       0.806749   -0.418323    1.336709
O      -1.255323   -0.673754    0.071346
C       0.758051   -0.609821   -1.162445
C       0.545778   -2.003107   -1.615808
N       0.021825   -0.868204   -2.405464
H       0.853564    1.963915   -0.124093
H      -0.676748    1.713500   -0.985907
H      -0.661418    1.881381    0.783730
H       0.312096   -0.001861    2.222097
H       0.860103   -1.504236    1.447943
H       1.826623   -0.020894    1.309500
H      -1.768434   -0.279034    0.782936
H       1.736709   -0.159026   -1.317479
H       1.358757   -2.551644   -2.083318
H      -0.166354   -2.607492   -1.063459
H      -0.971387   -0.781702   -2.196040
