18

C       0.767571    1.286733    0.012526
C      -0.166870    0.084593   -0.029043
C       0.073525   -0.857263   -1.226080
C       1.058261   -1.851117   -0.647266
C       1.683708   -2.980885   -1.330820
O       2.429512   -1.789741   -1.062128
C       0.814540   -1.836631    0.836668
N       1.237363   -2.699944    1.653671
O       0.057425   -0.747139    1.143151
H       1.810763    0.971175   -0.088762
H       0.534421    1.974296   -0.806844
H       0.655770    1.823685    0.958062
H      -1.208254    0.410213    0.034893
H      -0.855840   -1.362631   -1.507593
H       0.475130   -0.344411   -2.101390
H       1.969173   -3.848579   -0.740521
H       1.452410   -3.160717   -2.380170
H       0.971887   -2.459743    2.609976
