16

O       0.228873    0.028366    0.346868
C       0.144638    1.144987   -0.091605
N      -0.996678    1.961959   -0.057955
C      -0.792684    3.269410   -0.643386
C       0.366059    4.328604   -0.394863
C       1.540294    4.196741    0.579506
C       1.857049    2.714047    0.455668
C       1.180247    2.153710   -0.566160
C       0.482087    3.213134   -1.395312
H      -1.700173    1.766967    0.637660
H      -1.682572    3.706183   -1.085174
H       0.071247    5.323246   -0.718684
H       2.354696    4.886665    0.313255
H       1.281849    4.413244    1.624318
H       2.248041    2.142261    1.291504
H       0.597737    3.281928   -2.471423
