14

O      -0.207568   -0.043061   -0.274989
C      -0.085146    1.106875    0.045632
C       1.232258    1.877990   -0.092725
O       2.315260    0.947188   -0.288416
C       2.900461    1.284259   -1.454478
N       2.494846    2.296282   -2.102593
C       1.375772    2.844058   -1.319960
C       0.154744    2.995585   -2.214455
O      -0.962476    2.678306   -1.899643
H      -0.895961    1.686837    0.527326
H       1.408769    2.411221    0.847886
H       3.714773    0.634831   -1.753908
H       1.635268    3.862340   -0.994277
H       0.385369    3.448429   -3.199791
