18

C      -0.614893    0.084500    0.984228
C      -0.000156    0.534958    0.053522
C       0.788811    1.093231   -1.051790
N       1.879862    1.991457   -0.652581
C       1.468207    3.200398   -0.035873
C       1.005385    4.382954   -0.868050
C       2.173885    4.534190    0.059129
O       1.729937    4.761985    1.397411
C       1.084391    3.458460    1.429368
H      -1.165351   -0.315608    1.799678
H       1.219536    0.274552   -1.639925
H       0.130315    1.650327   -1.728080
H       2.539182    1.491603   -0.064213
H       1.262552    4.295858   -1.918902
H       0.074329    4.897137   -0.646314
H       3.166528    4.867730   -0.219490
H       0.021192    3.519964    1.685198
H       1.598320    2.792285    2.133006
