17

C      -0.023341    1.556854    0.027667
C       0.045723    0.032721   -0.040161
C       0.837456   -0.510805   -1.260060
C       1.460397   -1.789915   -0.703489
C       1.608498   -1.490504    0.784081
O       2.287430   -2.044834    1.595944
O       0.815358   -0.425931    1.106198
C      -1.294150   -0.562369    0.026196
C      -2.393088   -1.046465    0.062366
H       0.988401    1.970703    0.036425
H      -0.562206    1.944585   -0.841140
H      -0.545202    1.875692    0.932284
H       0.192137   -0.662819   -2.125601
H       1.613596    0.212839   -1.527384
H       0.791023   -2.650472   -0.809684
H       2.425102   -2.060772   -1.133258
H      -3.364193   -1.475277    0.106310
