18

C      -0.026392    1.528958    0.016554
C       0.138160    0.034884   -0.032656
N      -0.740666   -0.851969    0.745763
C       0.723613   -0.790142    1.063506
C       1.479961   -1.926471    0.437319
O       2.366471   -2.554775    0.957289
C       0.992367   -2.045141   -1.008706
C       0.436276   -0.646048   -1.376811
O      -0.698646   -0.661685   -2.217460
H       0.889158    2.035128   -0.306611
H      -0.834586    1.839993   -0.653551
H      -0.263978    1.872619    1.028594
H      -1.229212   -0.306048    1.453499
H       1.046150   -0.381190    2.014200
H       1.792181   -2.393351   -1.663701
H       0.183823   -2.783257   -1.045686
H       1.195078   -0.069370   -1.916131
H      -1.405363   -1.070529   -1.700928
