17

C      -0.390040    1.373412   -0.628498
O      -0.336915   -0.045242   -0.853589
C       0.878773   -0.601610   -0.761199
O       1.891264   -0.006637   -0.514294
C       0.783937   -2.126180   -1.013186
C       2.151198   -2.777913   -0.776477
N      -0.197036   -2.662265   -0.062469
C       0.370957   -2.329900   -2.425449
N       0.022525   -2.527140   -3.510323
H      -0.049642    1.610150    0.382131
H       0.242233    1.894576   -1.350550
H      -1.434649    1.653107   -0.758887
H       2.443572   -2.616109    0.262011
H       2.090187   -3.851737   -0.972550
H       2.906099   -2.341408   -1.431306
H      -1.102686   -2.233255   -0.225087
H      -0.302166   -3.661738   -0.211352
