19

O       0.018794    1.431834   -0.086725
C       0.062566    0.033064    0.094938
C      -1.346695   -0.561895   -0.000677
O      -1.959606   -0.137711   -1.214348
C      -1.365104   -2.085659    0.097868
C      -2.784129   -2.720579    0.037761
O      -2.775178   -3.513988   -1.145565
C      -1.425781   -3.782186   -1.406888
O      -0.716476   -2.609188   -1.069208
H      -0.575802    1.571717   -0.835329
H       0.711639   -0.457097   -0.648815
H       0.489388   -0.156583    1.086576
H      -1.957394   -0.143028    0.808365
H      -1.614592   -0.727947   -1.898774
H      -0.828602   -2.410418    1.000426
H      -2.978669   -3.339096    0.923709
H      -3.571124   -1.970871   -0.064971
H      -1.061292   -4.632142   -0.800826
H      -1.293910   -3.989984   -2.471779
