12

O       0.082247    1.331553    0.250222
C       0.067527    0.002453    0.012899
C       0.060170   -0.785149   -1.115684
N       0.044542   -2.109103   -0.758221
C       0.042295   -2.136394    0.560852
N       0.056103   -0.850710    1.075203
C       0.028058   -3.270989    1.398842
C       0.016103   -4.218051    2.143016
H       0.090113    1.795319   -0.593114
H       0.065284   -0.472018   -2.148591
H       0.057741   -0.585122    2.046362
H       0.005446   -5.063972    2.784796
