21

O      -0.896630    1.656826    0.427032
C      -0.412059    0.329023    0.274681
C      -1.606687   -0.589436    0.013425
C      -2.266978   -0.231064   -1.328780
O      -3.462868   -0.958589   -1.571895
C      -1.221547   -2.077014    0.051361
C      -0.994471   -2.633605    1.473149
C      -0.624766   -4.043885    1.474033
C      -0.318368   -5.205961    1.447196
H      -0.143211    2.244299    0.534425
H       0.294395    0.256400   -0.569435
H       0.127492    0.004972    1.177397
H      -2.342476   -0.389167    0.807658
H      -2.437453    0.851523   -1.372876
H      -1.590417   -0.494812   -2.151159
H      -4.127408   -0.644350   -0.950597
H      -2.022085   -2.648666   -0.426022
H      -0.317829   -2.243099   -0.548726
H      -0.214545   -2.060191    1.989788
H      -1.909637   -2.496648    2.064433
H      -0.049540   -6.232852    1.434634
