18

C      -0.142914    1.562453    0.027615
C       0.036097    0.041932    0.024588
C       0.839795   -0.491994   -1.216097
C       1.487496   -1.771763   -0.671838
O       2.942829   -1.999036   -0.704992
C       2.979420   -2.120854    0.751256
C       1.604332   -1.504806    0.792239
C       0.880744   -0.470472    1.199819
H       0.827409    2.070797    0.053294
H      -0.672728    1.895204   -0.871073
H      -0.720839    1.894240    0.896756
H      -0.963893   -0.416547    0.032976
H       0.215131   -0.638771   -2.102170
H       1.629815    0.226065   -1.462987
H       0.974387   -2.689661   -0.989293
H       3.048957   -3.173894    1.055332
H       3.798407   -1.553110    1.205363
H       0.931556    0.045077    2.152270
