23

C      -0.479111    1.173590    0.897724
O      -0.264115   -0.214921    0.961090
C       1.029977   -0.590909    0.550917
C       1.163309   -2.115424    0.627863
O       2.394199   -2.503743    0.015695
C       1.040048   -2.638747    2.039400
C      -0.297717   -3.036857    2.616028
C       0.739916   -4.093554    2.335541
C       0.546925   -5.123829    1.243327
H      -0.353711    1.560831   -0.126089
H      -1.505054    1.362582    1.223416
H       0.210113    1.725169    1.557292
H       1.227196   -0.271389   -0.484934
H       1.797376   -0.116547    1.191174
H       0.378436   -2.546759   -0.001685
H       3.095722   -2.367794    0.661355
H       1.725102   -2.149288    2.732363
H      -0.520131   -2.765406    3.642016
H      -1.152231   -2.979956    1.949770
H       1.252108   -4.482109    3.212689
H      -0.057434   -4.735874    0.418699
H       1.505910   -5.445874    0.824686
H       0.032112   -6.007810    1.635333
