19

C      -0.099945    1.546003    0.124979
C       0.134368    0.073616    0.018183
O      -0.780112   -0.801959    0.682381
C       0.612191   -0.945027    0.984122
C       1.251459   -1.776138   -0.162695
O       0.431023   -2.808561   -0.725832
C      -0.116359   -1.895111   -1.712186
C       0.751339   -0.723196   -1.182721
C       1.665146    0.025194   -2.124476
H       0.786783    2.111908   -0.175943
H      -0.931098    1.854904   -0.519536
H      -0.353418    1.812416    1.154464
H       0.897323   -0.871403    2.028839
H       2.301810   -2.054154   -0.035669
H       0.140493   -2.216507   -2.729351
H      -1.199633   -1.786370   -1.611675
H       1.100131    0.708440   -2.769644
H       2.401932    0.623110   -1.576332
H       2.214026   -0.667160   -2.770737
