15

C       0.007173    1.437895    0.045316
O       0.006811    0.018234   -0.000628
C       0.607471   -0.635696    1.001797
C       0.736964   -2.005380    1.178838
N       1.414560   -2.263632    2.324916
C       1.709373   -1.092675    2.864327
N       1.224441   -0.058612    2.071069
C       2.427176   -0.805185    4.096202
O       2.890052   -1.620731    4.858823
H       1.029553    1.837388    0.025980
H      -0.522597    1.772465   -0.846475
H      -0.518793    1.808367    0.934890
H       0.368979   -2.782160    0.527278
H       1.316831    0.925571    2.259911
H       2.522712    0.291796    4.293784
