15

O      -0.106222    1.417238   -0.084290
C      -0.038458    0.013156    0.014114
C       0.238846   -0.628015    1.434368
C      -1.138205   -1.293883    1.369505
C      -2.198051   -0.246271    1.215360
C      -1.413138   -0.660996    0.001424
C       0.865471   -0.533514   -1.010014
N       1.600471   -0.937054   -1.805944
H       0.789127    1.774226   -0.056937
H       1.078107   -1.324422    1.418595
H       0.384207    0.107360    2.231376
H      -1.354424   -2.303719    1.691014
H      -3.221291   -0.606565    1.223339
H      -2.063903    0.744255    1.638992
H      -1.875698   -1.078522   -0.882857
