18

C      -0.072942    1.483769    0.045794
C      -0.022361   -0.006361   -0.011181
C      -0.041397   -0.812771   -1.090910
C       0.039826   -2.239176   -0.614988
N       1.404533   -2.477840   -0.038083
C       1.479274   -1.593435    1.170142
C       0.091393   -0.889794    1.218536
C      -0.779271   -2.064845    0.684254
O      -1.722154   -2.634239    1.145968
H       0.835401    1.896286    0.502606
H      -0.178345    1.916580   -0.952887
H      -0.915091    1.826205    0.659787
H      -0.095665   -0.505946   -2.127695
H      -0.253843   -3.026884   -1.305076
H       1.452180   -3.448240    0.260495
H       1.652669   -2.176549    2.080971
H       2.296059   -0.872010    1.064786
H      -0.188680   -0.455752    2.176438
