15

C      -0.070683    1.538231    0.118062
C       0.025634    0.022864   -0.045482
C       0.731568   -0.454489   -1.282117
N       1.194402    0.426163   -2.097599
O       1.847162   -0.070068   -3.240841
C       1.948132   -1.391341   -3.412856
N       1.519493   -2.327837   -2.656986
C       0.854649   -1.931237   -1.492118
O       0.400691   -2.716910   -0.692428
H       0.919714    1.999060    0.158194
H      -0.611260    1.995942   -0.714486
H      -0.599246    1.777324    1.044486
H       0.535732   -0.440398    0.808675
H      -0.967828   -0.443430   -0.048469
H       2.477735   -1.601166   -4.340958
