19

C       0.422421    1.711838   -0.622386
C       0.451768    0.219668   -0.368902
C       1.704512   -0.612832   -0.344453
O       2.783857    0.093946    0.283074
C       2.097030    0.034958    1.574754
C       2.144854    1.349499    2.329784
O       3.487701    1.725814    2.583342
C       0.845574   -0.528513    0.898203
O       0.053525   -1.501213    1.476541
H       1.397563    2.157478   -0.418164
H       0.181800    1.908351   -1.672491
H      -0.328530    2.221317   -0.009061
H      -0.354210   -0.339214   -0.845117
H       1.955028   -1.421275   -1.020895
H       2.570104   -0.748515    2.181229
H       1.602212    2.136218    1.789787
H       1.662809    1.220635    3.305867
H       3.935418    1.730215    1.729198
H      -0.770986   -1.094258    1.763359
