16

C      -0.056792    1.511420    0.052280
C      -0.002364    0.018327    0.010013
C       0.013105   -0.746025   -1.085730
C       0.059393   -2.226290   -0.781546
C       1.204103   -2.922547   -1.364793
N       2.118425   -3.452155   -1.833034
C       0.090828   -2.251597    0.786435
O       0.129614   -3.241277    1.456295
C       0.039163   -0.803018    1.274226
H       0.811767    1.919143    0.583986
H      -0.077203    1.941233   -0.952210
H      -0.945425    1.858043    0.594098
H      -0.003034   -0.375429   -2.103476
H      -0.850314   -2.753048   -1.103503
H       0.913184   -0.589487    1.903766
H      -0.838815   -0.659128    1.917671
