20

C       0.248184    1.591851    0.118641
C       0.000722    0.104182    0.042324
C      -1.452608   -0.416917   -0.076225
C      -1.123084   -1.368034    1.102701
N       0.230925   -0.751172    1.294233
C       1.313972   -1.515211    0.596137
C       1.057051   -0.735407   -0.694374
C       1.161508   -1.110263   -2.105338
O       2.077864   -0.183625   -1.503703
H       1.287364    1.805431    0.384301
H       0.047660    2.061683   -0.850993
H      -0.404314    2.051156    0.867390
H      -2.201845    0.342193    0.161491
H      -1.720405   -0.884641   -1.026796
H      -1.754673   -1.253770    1.988122
H      -1.087159   -2.432794    0.844231
H       2.297856   -1.309947    1.030335
H       1.161798   -2.599841    0.563556
H       1.586574   -2.074989   -2.380392
H       0.476506   -0.679740   -2.835414
