12

O      -0.021489   -0.060810    0.003620
C      -0.022178    1.143210    0.010727
N      -1.195324    1.885587    0.029565
C      -1.255776    3.262716    0.037094
C      -0.180292    4.076628    0.027080
C       1.173847    3.544050    0.006752
O       2.187192    4.208637   -0.003683
C       1.283730    1.990717   -0.002284
O       2.342198    1.430269   -0.019531
H      -2.049655    1.345427    0.037667
H      -2.264654    3.659632    0.052116
H      -0.308350    5.151033    0.033969
