17

C      -0.026435    1.487487   -0.011603
C       0.022609   -0.027797    0.032595
O       0.067803   -0.649443    1.070939
C       0.012983   -0.748042   -1.292027
C       1.018981   -0.674332   -2.474123
N       0.002877   -1.711086   -2.982549
C       0.055686   -2.267213   -1.541972
C      -1.051655   -0.740780   -2.423951
H       0.827759    1.879710   -0.575409
H      -0.930099    1.824042   -0.532659
H      -0.014500    1.889407    1.002145
H       1.049027    0.238486   -3.075146
H       2.019704   -1.083024   -2.311887
H       0.982055   -2.798339   -1.312999
H      -0.822568   -2.856251   -1.269229
H      -2.015138   -1.212438   -2.214079
H      -1.169192    0.167303   -3.021409
