15

O       0.203112    1.115277   -0.820360
C       0.070923    0.064903    0.124872
C      -1.277742   -0.491138    0.196912
C      -2.413903   -0.906434    0.258749
C      -3.684287   -1.384045    0.326736
C      -4.819418   -1.800489    0.389837
C      -6.159333   -2.353860    0.447592
C      -6.235683   -3.776449   -0.123989
O      -6.937272   -4.633245    0.336582
H      -0.465300    1.777876   -0.615905
H       0.777489   -0.711522   -0.190002
H       0.381441    0.384394    1.132956
H      -6.559315   -2.373319    1.467036
H      -6.846539   -1.737525   -0.153276
H      -5.596717   -3.946886   -1.016431
