20

C      -0.134835    1.644981    0.214940
C      -0.037207    0.135426    0.035479
C       0.608810   -0.445166   -1.271193
C       1.219596    0.449581   -2.350282
O       2.022620   -0.332252   -3.212606
C       1.677630   -1.030158   -0.334491
O       2.707155   -1.648015   -0.495516
N       1.062373   -0.519043    0.772656
C       1.389663   -0.593424    2.173342
H       0.822665    2.138212    0.027459
H      -0.879596    2.061101   -0.470806
H      -0.450896    1.894250    1.233370
H      -1.008474   -0.325416    0.257738
H       0.000074   -1.218826   -1.746475
H       0.444078    0.912135   -2.970322
H       1.800921    1.263419   -1.889047
H       2.625429   -0.840838   -2.651746
H       2.315546   -1.165878    2.267432
H       1.547005    0.401613    2.605757
H       0.601541   -1.099897    2.744158
