20

C       0.845652    0.424654    0.836766
C      -0.008794    0.655493   -0.394535
O      -0.529189    1.731586   -0.604535
C      -0.192466   -0.492680   -1.359253
C      -1.527702   -0.469745   -2.091813
C      -0.294771   -0.061085   -2.822211
C       0.491274   -1.794600   -1.035129
C      -0.185717   -2.856599   -0.242935
N       0.120281   -3.066510   -1.667651
H       0.480361   -0.433874    1.409328
H       1.878293    0.196173    0.549294
H       0.832633    1.322474    1.455027
H      -1.997239   -1.416284   -2.338155
H      -2.208610    0.314107   -1.782669
H      -0.155683    0.994814   -3.020905
H       0.122808   -0.743629   -3.554077
H       1.570297   -1.703065   -0.921220
H       0.379057   -3.478362    0.446030
H      -1.220077   -2.680639    0.042291
H      -0.726026   -2.964921   -2.221914
