13

N       0.172448    1.417280   -0.073341
C      -0.010796    0.027526   -0.039216
C      -1.146996   -0.753962   -0.094982
O      -2.435129   -0.292768   -0.112678
C      -0.664662   -2.079573   -0.093967
O      -1.464601   -3.172567   -0.132095
N       0.653408   -2.145434   -0.036086
N       1.039249   -0.837769    0.013591
H       0.466405    1.792254    0.823791
H      -0.695451    1.872943   -0.331450
H      -3.012558   -1.043226   -0.286272
H      -0.890102   -3.947996   -0.126146
H       2.008521   -0.605160   -0.109435
