19

C      -0.010315    1.374474    0.052053
O      -0.049987   -0.032172    0.016856
C       0.680909   -0.625367    1.063104
C       0.627702   -2.103381    0.943305
C       0.101166   -2.917705    0.026156
C       0.461955   -4.298324    0.604622
C       0.051592   -4.133363    2.099263
C       1.227839   -3.124002    1.938975
O       1.853509   -4.089145    1.033753
H       1.018298    1.757543   -0.041238
H      -0.600441    1.738065   -0.792307
H      -0.440873    1.772928    0.984712
H       1.733574   -0.283126    1.045080
H       0.281444   -0.308620    2.046207
H      -0.438903   -2.694048   -0.880095
H       0.297744   -5.202417    0.020475
H      -0.944885   -3.752256    2.332122
H       0.321163   -4.996555    2.712658
H       1.862983   -2.786082    2.758076
