17

O      -0.081157    1.427444    0.022480
C      -0.059130    0.047601   -0.002810
C       0.456524   -0.761066   -1.226256
C      -0.540438   -1.830593   -0.780542
C      -0.553923   -1.845613    0.754049
C      -1.369202   -0.832062   -0.008990
C       0.432729   -0.778174    1.248465
C       1.845758   -1.065974    1.412679
C       3.023511   -1.283015    1.534171
H       0.828310    1.746538   -0.016641
H       0.133680   -0.283548   -2.155196
H       1.522893   -1.005262   -1.265585
H      -0.892924   -2.684543   -1.343365
H      -0.909906   -2.703090    1.309046
H      -2.420284   -0.587462   -0.001963
H       0.027822   -0.298607    2.145665
H       4.059181   -1.487735    1.648405
