19

C       0.202245    1.618128   -0.907502
O      -0.111825    0.245339   -0.949847
C       0.814117   -0.554842   -0.254301
C       0.356876   -1.996790   -0.381949
C       0.591226   -2.688852   -1.739816
C       1.591748   -3.576309   -0.948704
O       1.277288   -2.896460    0.282951
C       1.228041   -5.045738   -0.899408
O       1.724566   -5.885619   -1.603132
H       0.215312    2.000867    0.124870
H       1.183193    1.825775   -1.362888
H      -0.569133    2.147332   -1.471751
H       1.830391   -0.445096   -0.670440
H       0.864782   -0.280143    0.812802
H      -0.659771   -2.094609    0.016350
H      -0.271119   -3.215739   -2.151017
H       1.036024   -2.065484   -2.515557
H       2.644245   -3.471142   -1.234211
H       0.428357   -5.279721   -0.159258
