18

C       0.041522    1.239395   -0.245721
O      -0.040361   -0.153992    0.013159
C       0.673500   -0.580296    1.152380
C       0.248699   -1.973593    1.563548
C       0.435381   -3.062888    0.520160
C       1.494362   -2.807320    1.546391
O       2.593082   -2.010933    1.133574
C       2.183888   -0.729286    0.888514
N       2.941189    0.196413    0.485760
H       1.068374    1.553275   -0.456082
H      -0.592375    1.429350   -1.115025
H      -0.340816    1.820942    0.607911
H       0.527462    0.132807    1.978038
H      -0.510058   -2.089205    2.326070
H      -0.168046   -3.956761    0.631192
H       0.628593   -2.760755   -0.502805
H       1.769457   -3.527626    2.305934
H       3.891447   -0.149534    0.339424
