15

C       0.160797    1.334078   -0.138131
N      -0.162821   -0.079002   -0.228440
C       0.592057   -0.958635   -0.935481
O       1.591817   -0.662091   -1.561949
C       0.128362   -2.420559   -0.849302
O       0.358993   -3.094167   -2.072349
C       1.640736   -3.448096   -2.346683
O       1.946788   -3.942590   -3.386939
H       1.099971    1.487312   -0.670138
H      -0.616517    1.949497   -0.603253
H       0.280597    1.644475    0.904959
H      -1.007290   -0.407788    0.210189
H       0.671460   -2.900647   -0.022936
H      -0.941811   -2.509577   -0.647099
H       2.329351   -3.258430   -1.505801
