25

C       0.153993    1.597709    0.001127
C       0.286575    0.072973    0.045003
C       0.501243   -0.541637   -1.347762
C       0.673016   -2.054032   -1.352138
C      -0.515401   -2.847427   -0.835675
C       1.480176   -2.713166   -2.469451
C       2.107817   -1.955324   -3.621028
C       2.051483   -2.631220   -1.077463
O       3.153397   -1.781373   -0.911952
H       1.050413    2.062192   -0.424626
H      -0.697876    1.900422   -0.618104
H       0.003247    2.016648    1.001044
H       1.126533   -0.202749    0.697740
H      -0.608343   -0.353468    0.512744
H      -0.353271   -0.277886   -1.987276
H       1.378017   -0.069485   -1.798727
H      -1.411325   -2.649787   -1.437261
H      -0.321441   -3.923798   -0.882163
H      -0.754237   -2.603927    0.205414
H       1.116680   -3.699591   -2.749252
H       2.676424   -1.090208   -3.277441
H       2.804615   -2.604461   -4.162176
H       1.350912   -1.613700   -4.335608
H       2.107347   -3.551818   -0.494205
H       3.104711   -1.398647   -0.030023
