16

O       0.089187    1.452129   -0.028436
C      -0.021016    0.073636    0.029950
C       1.035545   -0.567956   -0.726652
C       1.903547   -1.119023   -1.348399
C      -0.424536   -0.757031    1.248372
C      -1.614101   -0.178032    2.056710
N      -2.035550    1.128036    1.469872
C      -2.465744   -0.161273    0.853132
C      -1.315250   -0.739222   -0.010608
H      -0.660278    1.779284    0.506566
H       2.677003   -1.591212   -1.901796
H       0.196406   -1.559632    1.624576
H      -1.845609   -0.415715    3.086393
H      -2.813278    1.480473    2.025024
H      -3.516797   -0.382847    0.724574
H      -1.473908   -1.526234   -0.736353
