17

O       0.000674   -0.112870    0.336430
C       0.009717    1.073732    0.075137
C      -1.281034    1.853183   -0.208080
C      -1.203909    3.370067   -0.087788
C       0.072045    4.044513    0.210038
C       1.174860    3.189779   -0.424059
C       0.487323    3.511911   -1.786455
N      -0.621555    4.269729   -1.119404
N       1.159203    1.813873    0.019837
H      -1.639698    1.554693   -1.201033
H      -2.020179    1.468062    0.498997
H      -2.091447    3.830994    0.335683
H       0.202669    4.825005    0.951453
H       2.186306    3.583189   -0.333217
H       1.066450    4.198583   -2.407449
H       0.169741    2.658437   -2.393878
H       2.018752    1.296504    0.124733
