19

C      -0.291527    1.693684   -0.150728
C      -0.007319    0.332866    0.455971
O       0.485866    0.170461    1.550542
N      -0.365507   -0.733201   -0.357844
C      -0.209098   -2.061929    0.001324
N      -0.562675   -2.991719   -0.784657
C      -0.360487   -4.360411   -0.340724
C       0.505997   -5.107246   -1.358636
O       1.793776   -4.535075   -1.484108
H       0.229942    1.811412   -1.106415
H      -1.363323    1.817133   -0.339229
H       0.043848    2.463485    0.542864
H      -0.782252   -0.563476   -1.261956
H       0.226136   -2.186349    0.996495
H       0.112911   -4.414926    0.652739
H      -1.336739   -4.860090   -0.280756
H       0.654340   -6.139915   -1.027081
H      -0.019152   -5.132725   -2.325855
H       1.660170   -3.618294   -1.749275
