23

C       1.294387    1.262744   -0.543000
C       0.776929   -0.133387   -0.234049
C      -0.202286   -0.634635   -1.282839
C       1.697596   -1.177599    0.412333
C       3.163695   -0.945521    0.694221
O       3.978934   -1.197411   -0.444660
C       0.558295   -0.555830    1.202705
C       0.793648    0.373931    2.375791
O      -0.579950   -1.364760    1.398450
H       2.050395    1.618453    0.159613
H       1.736828    1.293329   -1.546538
H       0.472055    1.987414   -0.534835
H       0.288019   -0.704502   -2.261070
H      -0.603170   -1.614221   -1.022620
H      -1.048925    0.054355   -1.386051
H       1.491214   -2.195333    0.087826
H       3.341619    0.065818    1.087030
H       3.515857   -1.646323    1.459886
H       3.643933   -0.648250   -1.160790
H       1.658803    1.025173    2.242337
H      -0.089284    1.000510    2.537542
H       0.960662   -0.207289    3.291346
H      -0.377757   -1.988738    2.104296
