19

C       0.684850   -0.258250    1.209640
N       0.139663   -0.160386   -0.138156
C       1.115458   -0.508704   -1.166166
C      -1.186483   -0.713112   -0.280493
C      -1.946488   -0.147824   -1.511139
C      -2.107238    1.301125   -1.442160
N      -2.255495    2.445285   -1.386268
C      -1.306819   -2.242980   -0.282649
O      -0.389644   -3.002249   -0.117837
H       1.578526    0.370316    1.277306
H      -0.044733    0.124484    1.930938
H       0.962504   -1.282709    1.501979
H       1.455604   -1.552544   -1.118130
H       0.707108   -0.323557   -2.163895
H       1.985220    0.145844   -1.052012
H      -1.767473   -0.399225    0.601324
H      -1.425790   -0.404433   -2.439172
H      -2.939565   -0.607008   -1.573508
H      -2.349068   -2.621649   -0.425153
