12

C      -0.055323    1.590473   -0.055988
C       1.472340    1.285297    0.015230
O       1.143377    0.180782    0.922828
C      -0.006436    0.033787    0.023847
C       0.683157   -0.323462   -1.308491
C       1.701457    0.538682   -1.314565
H      -0.436439    2.047142    0.860336
H      -0.458687    2.060910   -0.955070
H       2.220505    1.980350    0.393406
H      -0.813028   -0.586953    0.411090
H       0.382455   -1.077284   -2.020472
H       2.489617    0.706676   -2.033014
