22

C       0.448900    1.314147    0.256317
C      -0.064680   -0.113417   -0.004625
C      -1.593739   -0.108768   -0.084412
C       0.587284   -0.698155   -1.288614
C       1.990700   -1.179489   -0.864938
C       1.864873   -1.416367    0.625489
C       0.467817   -1.076823    1.088494
N       2.767459   -1.800948    1.435152
O       3.979236   -2.049623    0.756575
H       1.539695    1.346372    0.345374
H       0.159005    1.988332   -0.556942
H       0.032141    1.713856    1.187221
H      -1.943434    0.535827   -0.898679
H      -1.984474   -1.116317   -0.264062
H      -2.039126    0.263304    0.844975
H      -0.007468   -1.550743   -1.637104
H       0.614719    0.028538   -2.106094
H       2.320364   -2.082973   -1.386736
H       2.768654   -0.429453   -1.047123
H       0.448880   -0.659910    2.098488
H      -0.144200   -1.989701    1.101029
H       4.562122   -2.311572    1.476722
