17

O      -0.868931    1.060105   -0.347472
C       0.171353    0.941386    0.252249
C       1.360253    1.848951    0.092510
C       1.278018    3.033363   -0.911882
C       1.448889    4.022677    0.246200
C       0.371121    3.839562    1.264232
C       1.532159    2.862059    1.269295
C       2.396329    2.671890    2.379968
C       3.137616    2.483762    3.310304
H       0.300011    0.148233    1.024026
H       2.267107    1.248635   -0.022423
H       2.116257    3.035161   -1.610113
H       0.341028    3.107258   -1.468570
H       2.074107    4.906275    0.229188
H       0.380405    4.538732    2.092750
H      -0.616455    3.497944    0.965231
H       3.788248    2.325443    4.134148
