20

O      -0.215633    1.511649    0.171439
C      -0.096144    0.103281    0.158108
C      -1.470511   -0.575782    0.069682
C      -2.327921   -0.211958    1.302830
C      -3.594058   -0.926698    1.403484
C      -4.630430   -1.527140    1.510938
N      -2.101190   -0.077349   -1.154087
C      -1.796119   -0.793776   -2.393361
C      -3.145825   -0.884482   -1.775935
H      -0.842468    1.718900   -0.535145
H       0.522785   -0.239859   -0.686953
H       0.414834   -0.188023    1.081964
H      -1.329410   -1.670633    0.043148
H      -1.732756   -0.417216    2.201439
H      -2.500409    0.868982    1.289662
H      -5.551494   -2.046364    1.607190
H      -1.625648   -0.173851   -3.268458
H      -1.158362   -1.673694   -2.327311
H      -3.414605   -1.819295   -1.292900
H      -3.982341   -0.329927   -2.190515
