15

C       0.119676    1.662850   -0.206262
C       0.011354    0.122378   -0.065522
C       0.583730   -0.350335    1.299239
O       1.939173    0.001102    1.457636
C      -1.473054   -0.258833   -0.194963
O      -2.150058   -0.588157    0.739677
C       0.758434   -0.526047   -1.148847
N       1.361485   -1.058369   -1.979699
H       1.159531    1.959386   -0.059722
H      -0.214965    2.001006   -1.189897
H      -0.494748    2.140152    0.562121
H       0.026457    0.153799    2.091503
H       0.416193   -1.429064    1.408902
H       2.468814   -0.560605    0.880577
H      -1.885877   -0.169848   -1.222245
