18

C      -0.009811    1.483685   -0.136532
C      -0.030509   -0.040851    0.033265
C       0.689955   -0.481791    1.327741
C      -1.451102   -0.562796    0.089570
O      -2.356618   -0.014790    0.672160
C      -1.775689   -1.920404   -0.600136
O      -3.070500   -2.325504   -0.295278
C      -1.566972   -1.763096   -2.056227
N      -1.389695   -1.621917   -3.189466
H       1.021303    1.847537   -0.130497
H      -0.472110    1.783640   -1.081021
H      -0.555828    1.966200    0.677970
H       0.470720   -0.514239   -0.818987
H       1.732935   -0.155017    1.297487
H       0.211539   -0.032525    2.202954
H       0.682994   -1.569110    1.454132
H      -1.047051   -2.665209   -0.244381
H      -3.478720   -1.553107    0.135242
