16

C       0.005078    1.612111    0.516240
C      -0.073230    0.181631   -0.057142
C       0.831838   -0.725530    0.662907
N       1.521289   -1.472653    1.213208
C      -1.478248   -0.367654   -0.043157
C      -2.704422    0.231626   -0.191149
N      -3.712544   -0.703292   -0.161752
C      -3.109252   -1.856963    0.005314
N      -1.756026   -1.713503    0.076163
H       1.030239    1.986192    0.470803
H      -0.631772    2.276533   -0.071829
H      -0.334798    1.630519    1.553719
H       0.296114    0.213276   -1.092998
H      -2.919949    1.281161   -0.320026
H      -3.590021   -2.820304    0.085529
H      -1.076871   -2.436969    0.254577
