13

N      -0.011011    1.504000   -0.033662
C      -0.004267    0.047276   -0.007134
C       0.128989   -0.526416    1.431710
O      -1.244472   -0.945116    1.444635
C      -1.433829   -0.558354    0.074807
C       0.880273   -0.556838   -1.011678
N       1.588326   -0.990593   -1.816991
H       0.930196    1.859493    0.115594
H      -0.299002    1.834363   -0.951509
H       0.822640   -1.368529    1.532186
H       0.343535    0.237867    2.185806
H      -2.228147    0.185309   -0.047031
H      -1.610834   -1.418260   -0.580656
