17

O      -0.067879    1.412394    0.030791
C       0.004101    0.006427   -0.028019
C      -1.377762   -0.605054   -0.381679
C      -1.624852    0.020537   -1.782629
C      -0.210811   -0.012170   -2.395275
O       0.118197    0.329623   -3.498057
C       0.708976   -0.581418   -1.284096
C       0.273783   -2.032649   -1.151929
C      -0.950050   -2.047136   -0.609485
H       0.821425    1.761616    0.145838
H       0.412699   -0.424897    0.894861
H      -2.171299   -0.435820    0.345488
H      -2.343405   -0.530325   -2.392093
H      -1.945976    1.063372   -1.717410
H       1.768941   -0.384659   -1.439045
H       0.851524   -2.873847   -1.511257
H      -1.575419   -2.911836   -0.428522
