15

C      -0.028437    1.500605    0.075480
C       0.035127    0.014056    0.002007
C       0.025195   -0.776859   -1.080501
C       0.107466   -2.230529   -0.668496
O       0.165437   -2.199763    0.751552
C       0.125429   -0.861251    1.222902
C      -0.050071   -0.357051   -2.431702
N      -0.111030   -0.032095   -3.542532
H       0.855200    1.901438    0.586707
H      -0.088435    1.949488   -0.918023
H      -0.900673    1.822801    0.657084
H      -0.769667   -2.804494   -1.000978
H       1.001530   -2.725225   -1.075034
H       1.027512   -0.637525    1.815350
H      -0.740265   -0.716541    1.889555
