23

C      -1.273331    0.466160   -1.401995
C      -0.120095   -0.387782   -0.898117
C       1.325056   -0.074881   -1.364222
O       1.455777    1.317715   -1.614867
C       1.829461   -0.515479    0.043917
C       3.018499    0.191670    0.674670
C       0.383820   -0.313376    0.587879
C       0.125988    1.015751    1.288480
O       0.006457   -1.400125    1.420273
H      -1.065579    1.531839   -1.286522
H      -1.459355    0.280274   -2.465295
H      -2.198547    0.233370   -0.862514
H      -0.317121   -1.446000   -1.098822
H       1.700263   -0.652030   -2.219588
H       2.391188    1.510680   -1.732151
H       2.003932   -1.596441    0.023716
H       2.903503    1.279399    0.647948
H       3.141232   -0.106263    1.720905
H       3.949086   -0.062420    0.153297
H       0.451330    1.858282    0.675193
H      -0.945893    1.141966    1.487862
H       0.654380    1.047721    2.246387
H      -0.846625   -1.193848    1.817128
