19

O      -0.675179    0.807119   -0.622968
C       0.131857    1.020425    0.244637
C       1.352610    1.912054    0.107597
C       1.430709    2.590457   -1.264907
C       2.848198    3.021051   -1.667286
O       3.685258    3.457603   -0.598793
C       3.117753    4.280340    0.378245
O       2.611887    3.560324    1.475838
C       1.365216    2.931714    1.270844
H       0.027061    0.546389    1.248265
H       2.220575    1.253468    0.267965
H       1.038523    1.914864   -2.031362
H       0.753337    3.452279   -1.263253
H       3.387570    2.173892   -2.102568
H       2.787393    3.801242   -2.440669
H       3.929469    4.888432    0.784681
H       2.338274    4.934762   -0.048613
H       0.580354    3.685065    1.088783
H       1.134122    2.430856    2.216885
