13

O      -0.141373   -0.001018   -0.000275
C      -0.025489    1.205627    0.008228
C       1.224075    1.905838    0.000102
C       2.269803    2.522401   -0.006487
C       3.482833    3.211735   -0.014865
C       4.801552    2.779815   -0.033354
N       5.661230    3.835048   -0.034673
C       4.896172    4.911360   -0.017396
N       3.579534    4.598350   -0.005104
H      -0.912030    1.872982    0.023360
H       5.146307    1.757302   -0.045392
H       5.247088    5.932581   -0.013230
H       2.800802    5.236637    0.008746
