19

C      -0.432316    1.509246    0.374828
C      -0.140145    0.026169    0.213015
C       0.287769   -0.486021   -1.168410
N       1.587987    0.155978   -1.476663
C       1.548083   -1.059128   -0.637273
C       1.233844   -0.573298    0.800247
C       2.243819    0.384055    1.438440
C       0.956493   -1.699836    1.685438
N       0.738456   -2.593853    2.386254
H       0.353289    2.117159   -0.078918
H      -1.379723    1.758642   -0.115352
H      -0.525231    1.784974    1.430132
H      -0.969111   -0.573496    0.596195
H      -0.355631   -0.847272   -1.960828
H       1.862542   -0.134343   -2.413985
H       2.086152   -1.958997   -0.906854
H       2.507214    1.164314    0.723362
H       1.830655    0.845747    2.339494
H       3.153270   -0.153761    1.722333
