18

N      -0.027904   -0.654949   -1.001689
C       0.093447    0.398711   -0.538494
C       0.242491    1.714347    0.009269
C       0.509305    1.881581    1.506241
C       1.608403    2.161054    0.549018
O       2.663107    1.267548    0.549390
C       3.384433    1.247502   -0.657804
C       4.440945    2.296899   -0.886719
C       4.821400    0.868037   -0.547538
H      -0.365576    2.471744   -0.473914
H       0.018171    2.706409    2.008213
H       0.597164    0.967938    2.081656
H       1.876437    3.195159    0.335698
H       2.806985    0.889726   -1.506918
H       4.601858    2.660005   -1.895649
H       4.580524    3.037598   -0.107055
H       5.195660    0.683079    0.452649
H       5.247253    0.237617   -1.319243
