21

C      -0.991773    0.749194   -0.171976
O       0.030050   -0.198689    0.104993
C       0.600619   -0.732498   -1.028882
C       0.019977   -1.925945   -1.792142
O       1.351348   -2.475344   -1.990664
C       1.922683   -1.432886   -1.192479
C       1.727149   -0.067256   -1.824542
C       1.692627    0.098938   -3.330002
C       2.425306    1.050144   -1.066437
H      -0.609836    1.593682   -0.760080
H      -1.829964    0.292453   -0.716686
H      -1.354276    1.115500    0.790809
H      -0.574352   -2.578751   -1.142564
H      -0.506137   -1.751234   -2.737190
H       2.716493   -1.694798   -0.501579
H       1.354738   -0.814395   -3.823902
H       1.034703    0.923433   -3.627604
H       2.695911    0.323906   -3.710037
H       3.465201    1.143407   -1.398518
H       1.934629    2.013861   -1.243763
H       2.422078    0.873889    0.012208
