17

O      -0.130453    1.364519   -0.074691
N       0.000280   -0.040117   -0.132386
C      -1.136808   -0.608834    0.022693
C      -2.474069   -0.071751    0.235999
C      -3.330079   -1.107089    0.383082
N      -2.715104   -2.359353    0.408963
C      -2.905785   -3.266631   -0.774821
C      -1.486215   -2.906615   -1.282455
C      -1.278902   -2.114389    0.043894
H       0.780639    1.654255   -0.186191
H      -2.713289    0.978393    0.280374
H      -4.408587   -1.058146    0.485059
H      -3.030511   -4.306641   -0.462171
H      -3.740379   -2.983398   -1.421401
H      -0.804734   -3.744288   -1.435839
H      -1.476709   -2.269243   -2.167633
H      -0.578928   -2.588267    0.735494
