13

C      -0.301533   -1.244232   -0.230728
C      -0.095552   -0.067862   -0.104396
C       0.109138    1.359154    0.067546
C      -0.471599    1.944715    1.399929
N       0.689384    2.464751    2.128154
C       1.691715    2.252739    1.380172
O       1.538770    1.656987    0.172548
C       3.042216    2.611639    1.714293
N       4.128796    2.901492    1.976662
H      -0.475740   -2.285828   -0.349131
H      -0.253443    1.902785   -0.809357
H      -1.184051    2.753719    1.214971
H      -0.974665    1.179461    1.996120
