17

C      -0.124921    1.426617   -0.125451
C      -0.010208   -0.025269    0.257911
O       0.853196   -0.520865    0.926991
O      -1.057660   -0.731443   -0.272920
C      -0.985846   -2.126380   -0.148681
C      -1.318285   -2.768592    1.181510
C      -2.312116   -2.828957    0.064802
C       0.016739   -2.783312   -1.027299
O       0.741885   -2.200324   -1.789575
H       0.093843    1.529728   -1.192770
H      -1.141584    1.791709    0.038638
H       0.590583    2.012170    0.450468
H      -0.774176   -3.665426    1.456589
H      -1.499507   -2.079149    1.996377
H      -3.174065   -2.173818    0.106618
H      -2.473660   -3.769394   -0.450486
H       0.031330   -3.892919   -0.926962
