18

C      -0.049111    1.519768   -0.076518
C       0.050502    0.029276   -0.000173
C       0.542430   -1.024340   -0.944752
C       1.272571   -1.756483    0.184722
C       0.501575   -0.847123    1.211512
C      -0.749757   -1.615895    1.597592
O      -1.070249   -2.036065    2.677191
C      -1.530843   -1.764846    0.275482
N      -0.899898   -0.854485   -0.683586
H       0.911410    1.993474    0.151804
H      -0.356287    1.821503   -1.081479
H      -0.789949    1.903941    0.634183
H       0.864701   -0.947375   -1.977431
H       1.151132   -2.841297    0.274437
H       2.338272   -1.517918    0.186441
H       1.064451   -0.425554    2.040408
H      -1.522690   -2.804433   -0.068535
H      -2.576105   -1.475235    0.422993
