15

O      -0.899789    1.403876   -0.168558
C       0.201885    1.057135    0.171946
C       1.390139    1.950388    0.202491
N       2.556664    1.494839    0.467897
C       3.457279    2.629244    0.235380
C       3.433478    2.868145   -1.320440
C       2.282714    3.846104   -1.088820
C       2.564675    3.909346    0.366907
N       1.277513    3.351103   -0.068253
H       0.440689    0.022417    0.490140
H       4.416551    2.536495    0.737079
H       4.322316    3.416207   -1.640686
H       3.281160    1.988202   -1.950717
H       1.905410    4.594818   -1.773073
H       2.598521    4.728610    1.075326
