20

C       0.073895    1.491587    0.202418
C      -0.002639   -0.017046   -0.053179
N       0.654685   -0.449211   -1.276542
C       0.001035   -0.708595   -2.547341
C      -0.580954    0.539071   -3.220384
C       1.181801   -1.336924   -3.331097
O       2.362926   -1.012928   -2.592810
C       2.015526   -0.579008   -1.341279
O       2.815429   -0.357744   -0.470043
H       1.119267    1.804254    0.261024
H      -0.418230    2.063661   -0.589418
H      -0.412118    1.736540    1.152361
H       0.474709   -0.546275    0.777631
H      -1.044277   -0.352634   -0.101233
H      -0.800707   -1.446557   -2.414828
H       0.198856    1.288827   -3.387815
H      -1.022241    0.274200   -4.187283
H      -1.367382    0.989640   -2.607889
H       1.093457   -2.426774   -3.397620
H       1.278567   -0.927215   -4.339673
