14

N      -0.122886    1.284077   -0.060950
C       0.049587   -0.058586    0.001273
O       1.094719   -0.653225    0.025834
N      -1.211445   -0.752368    0.020208
N      -2.384838   -0.112673    0.027497
C      -3.281418   -1.084598    0.054718
C      -2.594903   -2.328416    0.057733
N      -3.118438   -3.605453    0.150760
N      -1.290349   -2.094242    0.031026
H       0.698952    1.856453    0.011014
H      -1.043652    1.684276    0.002582
H      -4.339540   -0.875411    0.073784
H      -3.985780   -3.740412   -0.348204
H      -2.441780   -4.322058   -0.074773
