17

C       0.319267    1.313262   -0.173299
O       0.426485   -0.091201   -0.146127
C       0.198646   -0.615069    1.148515
C       0.316415   -2.065717    1.136520
C       0.408423   -3.267416    1.144296
C       0.519666   -4.697271    1.169935
C       1.518723   -5.376096    0.288917
N       1.732150   -5.341473    1.737330
H       1.055885    1.794080    0.490375
H       0.508358    1.631569   -1.200750
H      -0.684736    1.654075    0.126526
H       0.920199   -0.187259    1.867205
H      -0.805308   -0.328393    1.508565
H      -0.394990   -5.234511    1.406889
H       1.280461   -6.354702   -0.117889
H       2.126607   -4.744031   -0.351184
H       2.408014   -4.615627    1.964524
