20

C      -0.025636    1.495279   -0.031744
C      -0.075196   -0.013769    0.062622
C      -0.816855   -0.636425    1.247263
C       0.689333   -0.721994    1.151332
O       1.352181   -1.924000    0.885482
C       0.698302   -2.764893   -0.059451
C       0.403420   -2.026562   -1.353917
C      -0.994516   -1.625878   -1.697938
N      -0.034702   -0.631608   -1.247893
H       0.836113    1.812733   -0.626475
H      -0.929808    1.883062   -0.514574
H       0.048388    1.950638    0.961071
H      -1.240597    0.039998    1.981791
H      -1.405472   -1.531987    1.093724
H       1.290840   -0.131716    1.834560
H       1.391060   -3.589484   -0.241408
H      -0.213299   -3.191997    0.382250
H       1.116907   -2.196900   -2.157295
H      -1.301046   -1.535358   -2.736753
H      -1.785891   -1.941377   -1.020510
