19

O       0.036140   -0.073618    0.067539
C      -0.001052    1.130625    0.006464
C      -1.295819    1.926903   -0.013400
C      -1.729440    2.280633    1.433079
C      -0.778993    3.187807    2.235136
C       0.627219    2.599812    2.482281
C       1.531361    2.742929    1.272976
O       2.314475    1.607918    0.873313
C       1.239174    2.001564    0.038265
H      -1.167118    2.848380   -0.594914
H      -2.072404    1.318534   -0.484760
H      -2.709994    2.765960    1.376625
H      -1.877298    1.341899    1.980915
H      -0.686250    4.162141    1.735766
H      -1.251177    3.389624    3.203001
H       1.093332    3.094601    3.340755
H       0.552583    1.535749    2.733416
H       2.052711    3.695998    1.177188
H       1.515286    2.439581   -0.924025
