19

C       0.083716    1.540925    0.248858
O       1.421470    1.532971   -0.294494
C       1.319624    0.141049   -0.705176
C       1.957890   -0.205147   -2.050030
C       3.140363   -1.157100   -1.665667
C       2.784498   -1.650937   -0.264326
C       1.834651   -0.881536    0.255206
C       0.601761   -0.837618    1.141901
C      -0.086829    0.036565    0.026725
H       0.057184    1.886209    1.289797
H      -0.583603    2.171866   -0.353882
H       1.251126   -0.731369   -2.699232
H       2.279734    0.699020   -2.572190
H       3.226464   -1.995855   -2.365276
H       4.108022   -0.638936   -1.688597
H       3.211168   -2.554103    0.159026
H       0.143405   -1.809673    1.341685
H       0.710141   -0.306540    2.092872
H      -1.004172   -0.345564   -0.418081
