15

C      -0.044559    1.457315   -0.077095
C      -0.029487   -0.026471   -0.005906
N      -1.020251   -0.854841   -0.148820
C      -0.404717   -2.075008    0.017800
C      -1.131800   -3.387912   -0.041358
C      -1.719544   -3.653316   -1.351234
C      -2.199438   -3.878301   -2.428403
N       0.878055   -2.013040    0.251798
O       1.139996   -0.636156    0.236973
H       0.315852    1.892029    0.859949
H       0.610374    1.810084   -0.879444
H      -1.062542    1.796518   -0.266600
H      -0.426366   -4.180479    0.228270
H      -1.920824   -3.382082    0.721069
H      -2.625822   -4.074495   -3.380829
