23

C      -0.001744    1.556638    0.010636
C      -0.015013    0.025704    0.002440
C      -1.431430   -0.558185    0.012766
C      -1.443152   -2.079921    0.004759
O      -2.785520   -2.522091    0.015000
C      -2.889456   -3.933254    0.008603
C      -4.288676   -4.337735    0.019405
C      -5.437588   -4.694793    0.028371
C      -6.829140   -5.120960    0.039716
H       1.020759    1.946821    0.003006
H      -0.519822    1.961449   -0.865739
H      -0.502972    1.951838    0.901084
H       0.524215   -0.339300   -0.881828
H       0.540937   -0.348831    0.872250
H      -1.976352   -0.209585    0.898572
H      -1.993032   -0.200218   -0.858771
H      -0.919878   -2.464818   -0.888829
H      -0.903243   -2.474267    0.884220
H      -2.385739   -4.349153   -0.882124
H      -2.369389   -4.358384    0.885466
H      -6.905943   -6.213918    0.034556
H      -7.350652   -4.756854    0.931645
H      -7.367952   -4.747300   -0.837861
