15

O      -0.146049    1.317461   -0.044816
N       0.013603   -0.072602    0.044991
C      -1.101631   -0.662594   -0.040540
C      -2.569607   -0.253185   -0.079090
C      -2.929598   -1.745027    0.055215
C      -2.343376   -2.528006   -1.064319
C      -1.410922   -2.120682    0.077406
C      -0.717411   -3.082927    0.867945
N      -0.162336   -3.867309    1.512693
H       0.758239    1.633547    0.059183
H      -2.829791    0.347270    0.796593
H      -2.929721    0.253774   -0.978442
H      -3.686700   -2.149347    0.712971
H      -2.577295   -3.586982   -1.081778
H      -2.194955   -2.077362   -2.041417
