19

N      -0.047069   -1.100585    0.083242
C      -0.072711    0.055476    0.083931
C      -0.057233    1.518497    0.053979
C      -0.339683    2.190235   -1.319780
C       0.908775    3.093565   -1.123251
C       1.360806    2.217766    0.085827
C       1.474915    2.869008    1.476622
C       0.197711    2.383440    2.214923
N      -0.806445    2.075623    1.184211
H      -0.226480    1.487417   -2.146698
H      -1.318476    2.669370   -1.406267
H       1.598764    3.130727   -1.967763
H       0.667049    4.120435   -0.836430
H       2.193713    1.556761   -0.155774
H       2.387593    2.577943    2.003630
H       1.482340    3.960813    1.391455
H       0.414164    1.464826    2.772387
H      -0.203680    3.109297    2.926069
H      -1.268069    2.927992    0.885311
