13

C      -0.072081    1.502670    0.010948
C      -0.024662   -0.013904    0.002340
O      -1.359537   -0.501007    0.012373
C      -1.416797   -1.902682    0.005407
C      -2.818995   -2.331665    0.016475
N      -3.912453   -2.701611    0.024976
H       0.942588    1.911150    0.003528
H      -0.604080    1.874947   -0.868604
H      -0.587275    1.865408    0.904380
H       0.502402   -0.385145   -0.892126
H       0.519226   -0.394695    0.882608
H      -0.928600   -2.327271   -0.887955
H      -0.911720   -2.336785    0.884701
