21

O       0.037678    1.198681   -0.371666
C      -0.053629   -0.198163   -0.171296
C      -1.493184   -0.640228    0.032630
O      -2.204950   -0.254984   -1.139650
C      -3.598687   -0.455975   -1.066474
C      -4.220618    0.069189   -2.377916
C      -4.801192   -1.194098   -3.050705
C      -4.078947   -2.322229   -2.305989
O      -3.928984   -1.824319   -0.975476
H      -0.623501    1.406689   -1.042217
H       0.376154   -0.755504   -1.019256
H       0.535113   -0.438283    0.720189
H      -1.559401   -1.724316    0.188950
H      -1.922698   -0.134169    0.911309
H      -3.986417    0.014331   -0.152558
H      -4.982492    0.826285   -2.183089
H      -3.432021    0.528440   -2.977546
H      -5.878879   -1.264272   -2.877727
H      -4.629396   -1.220021   -4.129199
H      -4.642160   -3.256386   -2.249039
H      -3.096054   -2.529579   -2.752576
