25

C       0.152151    1.523167    0.209654
C       0.037544    0.009379   -0.012884
C       0.692843   -0.498490   -1.301198
C       0.046731    0.118751   -2.547284
C       2.256342   -0.407862   -1.386907
C       2.329815   -1.892132   -1.842393
C       2.684252   -2.899401   -0.723260
C       1.186121   -2.942805   -0.293874
C       0.801848   -2.044972   -1.508003
H       1.197903    1.849224    0.183743
H      -0.391673    2.092903   -0.549509
H      -0.256779    1.803577    1.185399
H       0.491707   -0.498214    0.845828
H      -1.022341   -0.281541   -0.011598
H       0.197252    1.202343   -2.588101
H       0.477012   -0.305464   -3.460999
H      -1.032258   -0.076001   -2.567443
H       2.635665    0.328424   -2.100739
H       2.747348   -0.228588   -0.424331
H       2.745664   -2.069817   -2.835104
H       3.036050   -3.859951   -1.109648
H       3.403531   -2.550471    0.024475
H       0.742558   -3.940561   -0.333632
H       0.966829   -2.526566    0.692227
H       0.077211   -2.482103   -2.198997
