20

C      -0.176320    1.565405   -0.010522
C       0.069863    0.045629    0.035122
C       0.766127   -0.493913   -1.178675
C       2.036040   -0.899536   -1.282258
C       2.364109   -1.347092   -2.685764
C       1.041998   -1.091590   -3.455848
N       0.106170   -0.605586   -2.424285
C      -1.204388   -0.395478   -2.717300
O      -1.683177   -0.556919   -3.823727
H       0.770279    2.103770   -0.112914
H      -0.814734    1.851653   -0.850808
H      -0.663067    1.900179    0.910093
H       0.694670   -0.191911    0.901248
H      -0.881145   -0.479200    0.189677
H       2.739879   -0.912497   -0.461840
H       3.197792   -0.782086   -3.117984
H       2.656106   -2.403733   -2.721469
H       1.145160   -0.335975   -4.239723
H       0.629470   -1.987886   -3.924694
H      -1.797987   -0.063358   -1.847821
