21

C      -0.114729    1.592381    0.044155
C      -0.006047    0.064955    0.041642
C       0.702029   -0.507965   -1.211192
C       2.214986   -0.213335   -1.209178
O       2.723061    0.878573   -1.172114
C       2.976801   -1.546198   -1.252818
C       1.874526   -2.560983   -1.349809
C       0.652071   -2.018975   -1.335277
C      -0.643718   -2.760148   -1.448034
H       0.870537    2.057164   -0.028360
H      -0.710971    1.941858   -0.806421
H      -0.601451    1.943424    0.959483
H       0.526946   -0.278225    0.937509
H      -1.009587   -0.372588    0.099241
H       0.255420   -0.025698   -2.094455
H       3.668651   -1.552934   -2.105309
H       3.603283   -1.647418   -0.356311
H       2.066149   -3.625260   -1.438283
H      -0.476856   -3.833423   -1.574141
H      -1.272117   -2.618949   -0.560572
H      -1.229944   -2.403113   -2.304682
