16

C       0.018833    1.498143    0.137862
C       0.083324    0.005942   -0.087776
O       1.118061   -0.608402   -0.204971
C      -1.270168   -0.720059   -0.098571
O      -2.289279    0.066126   -0.662004
C      -1.187808   -2.211998   -0.540586
N      -1.410755   -2.570120    0.872392
C      -1.623632   -1.302762    1.314051
O      -2.008876   -0.803618    2.339017
H       1.028495    1.903760    0.203346
H      -0.537280    1.977214   -0.672647
H      -0.531568    1.703062    1.063984
H      -2.912548    0.294052    0.038088
H      -2.008547   -2.495963   -1.203403
H      -0.218274   -2.521075   -0.931205
H      -1.525340   -3.459903    1.335069
