20

C      -0.178044    1.269352   -0.314217
C      -0.062880   -0.058908    0.363355
C      -1.101834   -0.921053    0.522081
C      -1.664071   -1.422804   -0.817408
N      -0.671332   -2.581882   -0.684517
C      -0.608019   -2.344481    0.787247
C       0.671551   -2.277681    0.074434
C       1.624896   -3.435129   -0.063571
C       1.229013   -0.859171    0.313567
H       0.375455    1.297871   -1.263174
H      -1.223820    1.526537   -0.506663
H       0.243476    2.068152    0.310542
H      -2.658392   -1.881013   -0.813909
H      -1.550894   -0.773891   -1.691561
H      -0.960544   -3.067355    1.516440
H       1.088908   -4.385148   -0.104987
H       2.223548   -3.343069   -0.976457
H       2.315469   -3.458370    0.787624
H       1.856392   -0.469402   -0.498080
H       1.865615   -0.884469    1.211022
