19

O      -0.129944    1.456291   -0.041644
C       0.013413    0.071216    0.065306
C      -0.175240   -0.792019   -1.148866
C      -1.212825   -0.806862   -0.030457
C      -1.136530   -1.911027    1.013388
C      -0.649819   -3.292473    0.534106
O       0.720912   -2.955142    0.853442
C       0.291540   -1.795311    1.615038
C       0.910917   -0.465895    1.180539
H       0.611541    1.794159   -0.555368
H      -0.476796   -0.284329   -2.059022
H       0.474583   -1.649327   -1.285282
H      -2.172726   -0.355675   -0.251823
H      -1.988994   -1.897285    1.693979
H      -1.008341   -4.132265    1.144192
H      -0.780042   -3.531122   -0.526843
H       0.395753   -1.984780    2.690099
H       1.956139   -0.601559    0.881042
H       0.886474    0.248287    2.011076
