15

N      -0.309683   -1.311907    0.029522
C      -0.183859   -0.163139    0.076560
C      -0.005229    1.250530    0.157313
C      -0.836929    2.286308    0.792670
C       0.066096    3.028233    1.798582
C       1.375744    2.987119    1.029877
C       1.285092    2.086860    0.026717
C       0.730271    2.649649   -1.284248
N      -0.655787    2.248560   -0.742622
H      -1.886054    2.110557    1.009981
H      -0.209916    4.073878    1.971433
H       0.005255    2.515150    2.768116
H       1.950486    3.900418    0.905169
H       0.878821    3.714146   -1.478408
H       0.871640    2.060452   -2.193730
