22

C      -0.204967    1.451718    0.216947
C      -0.008327   -0.046051   -0.032411
C       0.811799   -0.287130   -1.296208
C       0.864048   -1.699012   -1.924630
O       0.456402   -1.188779   -3.210467
C       0.198836    0.116280   -2.656044
N       0.692644   -0.630708    1.113728
C      -0.108039   -0.920561    2.297000
C       0.408238   -2.024283    1.442460
H       0.762839    1.944057    0.354079
H      -0.721665    1.925007   -0.623454
H      -0.801789    1.621958    1.117782
H      -1.003188   -0.515927   -0.165159
H       1.811320    0.130255   -1.149427
H       1.844025   -2.187206   -1.966580
H       0.129918   -2.410810   -1.522366
H      -0.878159    0.338378   -2.621299
H       0.704630    0.910971   -3.216168
H       0.355409   -0.692867    3.252632
H      -1.178654   -0.724545    2.251485
H      -0.323739   -2.557307    0.838268
H       1.259141   -2.621351    1.757818
