16

O      -0.038365    1.391491   -0.019471
C      -0.076104    0.002611   -0.057023
C      -0.478178   -0.751144    1.193955
O      -1.021660    0.092419    2.180007
C      -2.441474    0.186684    1.941321
C      -2.626054    0.055600    0.417421
C      -1.394772   -0.755589   -0.000748
O      -1.549537   -1.931203   -0.732491
H      -0.168354    1.630964    0.909777
H       0.700302   -0.441806   -0.675756
H       0.054378   -1.626758    1.550428
H      -2.952471   -0.630185    2.468971
H      -2.779049    1.139085    2.357574
H      -3.534317   -0.491818    0.156996
H      -2.645082    1.035332   -0.068970
H      -1.585149   -1.698510   -1.667000
