21

C       0.498615    1.626437   -0.247012
C       0.071656    0.182147   -0.029292
C       0.780337   -0.946735   -0.845506
C       0.977685   -1.769446    0.458082
C       2.391239   -1.601076    1.100058
C       1.856824   -0.343349    1.870087
C       0.431949   -0.557502    1.292034
C       2.767321   -2.733802    2.012904
O       3.788730   -3.369605    1.951038
H       1.582235    1.751336   -0.149659
H       0.222179    1.963880   -1.252054
H       0.018227    2.298519    0.472930
H      -1.011317    0.107458   -0.176461
H       0.158406   -1.424755   -1.605793
H       1.718671   -0.642024   -1.319817
H       0.533598   -2.766045    0.481723
H       3.208382   -1.433811    0.394476
H       1.903632   -0.454886    2.957355
H       2.353562    0.594166    1.612025
H      -0.364985   -0.647486    2.032030
H       1.998406   -2.964657    2.790713
