21

C      -0.243823    1.465858    0.043089
C       0.069001   -0.035129   -0.004585
C       0.819053   -0.399600   -1.292092
C       0.838309   -0.500173    1.257578
C      -0.037377   -0.522667    2.550527
O      -0.120034   -1.957010    2.530214
C       0.832215   -2.048975    1.458138
C       2.134737    0.141624    1.392849
C       3.210591    0.665670    1.517026
H       0.678858    2.054746    0.034387
H      -0.842258    1.760876   -0.824377
H      -0.806760    1.737498    0.941930
H      -0.880901   -0.586991    0.010278
H       1.777058    0.127289   -1.345177
H       1.022699   -1.473386   -1.356223
H       0.229983   -0.121035   -2.171328
H       0.471254   -0.147565    3.446090
H      -1.023202   -0.051213    2.463716
H       0.448736   -2.634762    0.614659
H       1.791392   -2.464659    1.787724
H       4.160623    1.127077    1.628539
