15

C       0.025228    1.468510   -0.102026
C       0.023823   -0.019995   -0.035809
O       0.599860   -0.812262   -1.116216
C       0.133399   -1.835143   -0.200199
C       0.456312   -1.024902    1.088019
O      -0.876563   -1.153188    1.657857
C      -1.156947   -1.053139    0.244802
C      -2.534170   -1.091449   -0.305908
O      -3.535198   -1.161550    0.359206
H       1.051990    1.845412   -0.134390
H      -0.501324    1.819166   -0.994196
H      -0.471376    1.872698    0.784824
H       0.269097   -2.885076   -0.455653
H       1.318280   -1.038230    1.754183
H      -2.557300   -1.041142   -1.416877
