23

C      -0.106337    1.583690   -0.052208
C      -0.007839    0.060895   -0.005577
C       1.129903   -0.532203   -0.891376
C       2.009905   -0.690147    0.377043
C       0.727008   -0.537690    1.243138
C       0.798545    0.250677    2.538426
O      -0.508101    0.514918    3.077721
C       1.642751   -0.433332    3.617680
O       1.617621    0.304408    4.819951
H       0.874040    2.060428    0.060125
H      -0.515965    1.907685   -1.014917
H      -0.755690    1.959869    0.743509
H      -0.999016   -0.366184   -0.185161
H       0.858364   -1.498338   -1.325530
H       1.514099    0.108939   -1.689301
H       2.584461   -1.612717    0.486236
H       2.691977    0.155165    0.512533
H       0.313581   -1.532435    1.462710
H       1.218413    1.246400    2.357114
H      -0.988425   -0.321527    3.097549
H       1.265389   -1.462734    3.767381
H       2.687559   -0.512411    3.297892
H       0.703581    0.605665    4.909588
