18

C      -0.007598    1.563975    0.036475
C       0.045403    0.065208   -0.147212
C       0.705176   -0.673920   -1.236618
N       1.252883   -0.757178    0.212692
C       2.401126    0.001416   -0.238773
O       3.335596    0.410979    0.378571
C       2.006520   -0.051141   -1.740203
C       2.886766   -1.031908   -2.513446
O       1.845420    1.168765   -2.431227
H       0.832284    2.074135   -0.434664
H      -0.928431    1.949019   -0.413599
H      -0.024879    1.808386    1.103271
H      -0.837658   -0.443102    0.235922
H       0.261353   -1.556883   -1.683139
H       2.957341   -1.996292   -2.002414
H       2.473586   -1.188741   -3.514408
H       3.900907   -0.629868   -2.610448
H       2.723649    1.511371   -2.634464
