17

C      -0.071119    1.439979    0.034119
C       1.307966    0.830602    0.024243
C       1.945751    0.604210    1.385048
O       1.117481    0.979749    2.491812
C       1.178638   -0.408344    2.126391
C       0.042291   -0.867357    1.243657
C      -0.443777   -2.253408    1.289613
O      -1.210927   -1.191222    1.854465
C       0.079638   -0.061068   -0.035034
H      -0.415295    1.888076    0.956826
H      -0.401725    1.929384   -0.875252
H       1.961216    0.963297   -0.829266
H       3.011454    0.761978    1.522555
H       1.585966   -1.071363    2.885404
H      -0.853779   -2.702851    0.385521
H      -0.018221   -2.959189    2.003045
H      -0.210195   -0.561088   -0.952018
