23

C       0.000231    1.363991   -0.310334
O      -0.019022    0.082650    0.276568
C      -1.263675   -0.556436    0.177387
C      -1.710427   -1.151938   -1.185706
C      -2.180609   -2.419876   -0.420146
C      -1.326039   -1.977334    0.810420
C       0.038444   -2.668720    0.850166
C      -2.022201   -2.030754    2.170551
O      -2.323638   -3.349053    2.605691
H       1.000525    1.777247   -0.159690
H      -0.207979    1.326704   -1.390088
H      -0.736718    2.035773    0.158168
H      -2.052864    0.092091    0.594901
H      -2.455800   -0.600785   -1.763435
H      -0.845289   -1.351814   -1.823989
H      -3.251741   -2.408889   -0.202312
H      -1.930151   -3.385659   -0.863960
H       0.543754   -2.621267   -0.117798
H       0.700151   -2.200233    1.585464
H      -0.081274   -3.728073    1.104362
H      -1.414921   -1.491062    2.916253
H      -2.988929   -1.518493    2.107503
H      -1.495881   -3.782388    2.833323
