16

N      -0.019670    1.359230    0.169603
C       0.052266   -0.020721    0.125234
O       1.125206   -0.602391    0.206869
C      -1.236061   -0.712063    0.029129
C      -1.346880   -2.051214   -0.076441
N      -2.646170   -2.482360   -0.240126
C      -3.538244   -1.360995    0.112997
C      -2.632548   -0.112550   -0.060622
H       0.861562    1.838076    0.067401
H      -0.832854    1.834541   -0.185400
H      -0.527387   -2.757355   -0.087865
H      -2.888803   -3.399394    0.104689
H      -4.422322   -1.344814   -0.529238
H      -3.873651   -1.448954    1.156020
H      -2.840581    0.643889    0.702669
H      -2.806179    0.358359   -1.039422
