13

N      -0.099396   -1.227807   -0.008687
C      -0.061643   -0.073414    0.022718
C      -0.051882    1.377954    0.066335
C      -0.093229    1.990687    1.502307
N       1.367641    2.197764    1.429354
C       1.361206    2.063384   -0.037756
C       2.480407    1.322138   -0.615819
N       3.370510    0.761165   -1.092342
H      -0.787490    1.768029   -0.637662
H      -0.695089    2.908376    1.521907
H      -0.414709    1.325840    2.306546
H       1.727123    3.074623    1.788400
H       1.260418    3.010587   -0.586819
