20

C      -0.018779    1.612416   -0.003169
C      -0.009509    0.080498    0.016450
C       0.750308   -0.530783   -1.162824
C       2.265722   -0.205021   -1.228710
C       2.859232   -1.421944   -1.891876
C       2.012687   -2.447106   -1.927168
C       0.682734   -2.096321   -1.275025
C       0.541520   -2.784155    0.015424
N       0.437344   -3.333623    1.027628
H       0.994294    2.022638    0.061949
H      -0.473615    1.996162   -0.923484
H      -0.590219    2.009734    0.840749
H       0.429920   -0.276692    0.955347
H      -1.042786   -0.288439    0.007467
H       0.300746   -0.162382   -2.093072
H       2.463568    0.719988   -1.780140
H       2.693717   -0.065454   -0.225186
H       3.876273   -1.447988   -2.267038
H       2.216541   -3.438969   -2.311081
H      -0.174495   -2.400094   -1.887524
