18

C      -0.276406    1.551772    0.135802
C       0.085930    0.080040    0.007504
O       0.929070   -0.075409   -1.167788
C       2.182678   -0.581643   -1.050014
O       2.887135   -0.697254   -2.012851
C       2.552997   -1.003993    0.362110
C       1.399630   -1.866766    0.934659
C       0.786224   -0.481197    1.242965
N       2.159496    0.139778    1.265685
H       0.611104    2.129766    0.403649
H      -0.674047    1.925314   -0.810732
H      -1.038469    1.689109    0.909973
H      -0.811537   -0.516751   -0.197372
H       3.588097   -1.339574    0.396874
H       0.865744   -2.552851    0.269890
H       1.706762   -2.389825    1.843625
H       0.172042   -0.340310    2.135332
H       2.572440   -0.041829    2.179464
