19

C       0.011515    1.580182   -0.170597
C      -0.012589    0.088968   -0.006688
C      -1.002603   -0.857280   -0.684264
O      -1.047474   -1.721646    0.483417
C      -0.199908   -0.815768    1.195093
C       1.152882   -0.726109    0.543519
C       1.814808   -1.897285   -0.161842
C       2.681775   -2.693408    0.789357
O       3.832310   -2.988157    0.591669
H       0.599895    2.054262    0.621046
H       0.459589    1.868630   -1.128972
H      -0.999581    2.000979   -0.134318
H      -1.982972   -0.396457   -0.853022
H      -0.684745   -1.387257   -1.590159
H      -0.422015   -0.631351    2.240580
H       1.837780   -0.086568    1.099010
H       1.032330   -2.576194   -0.525203
H       2.426649   -1.578923   -1.011015
H       2.163005   -2.999421    1.727494
