11

O      -0.012543    1.455907    0.011092
C       0.006609    0.038669    0.001839
C      -1.363620   -0.461855    0.012380
C      -2.480839   -0.900178    0.020785
C      -3.841556   -1.429508    0.031061
F      -3.836263   -2.770176    0.024625
F      -4.513971   -1.032702    1.119359
F      -4.534303   -1.022436   -1.040568
H       0.901554    1.757874    0.004144
H       0.514850   -0.358628   -0.891466
H       0.532603   -0.369951    0.879623
