17

C      -0.554773    1.564668   -0.439888
O      -0.920406    0.244860   -0.872565
C      -1.160779   -0.629723    0.116137
O      -1.084764   -0.371333    1.291477
C      -1.554945   -1.995358   -0.374316
O      -1.939360   -2.183019   -1.730687
C      -0.738854   -2.824157   -1.290702
C       0.539848   -2.381981   -1.959487
O       0.641544   -2.947075   -3.256379
H      -0.415079    2.144551   -1.351599
H      -1.347998    1.997113    0.174210
H       0.367937    1.536499    0.144676
H      -2.162141   -2.514431    0.365222
H      -0.835850   -3.905406   -1.177830
H       0.592902   -1.288078   -1.985064
H       1.397897   -2.759329   -1.392680
H      -0.095676   -2.602309   -3.772484
