14

O      -0.081785    1.437949    0.055061
C       0.024210    0.035636    0.033730
C       0.667725   -0.514870   -1.269090
C      -0.072884   -0.124388   -2.454914
C      -0.694975    0.196684   -3.441102
C      -1.394544    0.558326   -4.550504
C      -2.014763    0.878929   -5.535369
C       0.774651   -0.471201    1.203059
N       1.391941   -0.849465    2.103535
H       0.804561    1.818106    0.036660
H      -1.003033   -0.336553    0.099491
H       1.703676   -0.154590   -1.327177
H       0.726859   -1.608170   -1.195286
H      -2.560894    1.161643   -6.401033
