18

C      -0.257234    1.555209    0.095428
C       0.178724    0.097165   -0.090028
C       0.798802   -0.495016    1.158755
O       1.993616    0.117387    1.572676
C      -0.063569   -1.090679    2.237230
C       0.824056   -1.995411    1.375872
C       0.247799   -2.908393    0.434812
C      -0.231609   -3.682457   -0.352083
H       0.595462    2.197929    0.341082
H      -0.704436    1.949279   -0.821535
H      -0.997428    1.651508    0.897479
H      -0.676694   -0.516882   -0.387489
H       0.912320    0.029171   -0.902160
H       1.769915    0.971989    1.957326
H       0.246881   -0.953190    3.266753
H      -1.133915   -1.150226    2.074727
H       1.729789   -2.340402    1.865146
H      -0.650026   -4.366049   -1.048137
