24

C       0.514479    1.681059    0.119992
C      -0.115468    0.300184   -0.049172
N       0.481791   -0.385328   -1.191246
C       1.637318   -1.239684   -0.943525
C       0.329218   -1.833970   -1.351021
C      -0.466800   -2.707971   -0.418071
C      -1.991026   -2.899756   -0.681336
C      -1.829771   -4.398557   -0.313241
C      -0.304022   -4.251393   -0.558183
H       1.585840    1.597043    0.330354
H       0.396344    2.271013   -0.793128
H       0.047872    2.220988    0.949940
H      -0.013900   -0.262751    0.893868
H      -1.189705    0.402032   -0.245781
H       2.461892   -1.156682   -1.647286
H       1.941525   -1.393350    0.092691
H       0.216310   -2.121607   -2.398091
H      -0.302204   -2.417924    0.623505
H      -2.689262   -2.295538   -0.096745
H      -2.223927   -2.768568   -1.743260
H      -2.054102   -4.583771    0.741369
H      -2.372546   -5.131314   -0.914754
H      -0.033712   -4.525882   -1.583458
H       0.382902   -4.754361    0.126798
