21

C       0.071002    1.572409   -0.106432
C       0.005900    0.056595    0.065707
O       0.694612   -0.227400    1.267997
C      -1.447108   -0.495056    0.076196
C      -2.261842   -0.000757   -1.128258
C      -1.441327   -2.050413    0.109630
N      -0.739975   -2.582800    1.292351
C      -2.808439   -2.605904    0.017344
N      -3.866527   -3.072295   -0.000483
H       1.106478    1.891609    0.035946
H      -0.255985    1.892817   -1.097919
H      -0.541867    2.074266    0.649891
H       0.522266   -0.411585   -0.795280
H       0.569059   -1.174601    1.441722
H      -1.922126   -0.144019    1.002501
H      -3.256135   -0.453778   -1.153666
H      -2.393657    1.081789   -1.090378
H      -1.758232   -0.244709   -2.071399
H      -0.891558   -2.398689   -0.774210
H      -1.283936   -2.390592    2.129724
H      -0.652743   -3.592374    1.224457
