18

O      -0.739750    0.490989    0.179512
C      -0.109724    1.515777    0.141164
C       1.351010    1.616563   -0.256461
C       1.537688    2.619166   -1.378383
N       1.470625    4.045796   -1.018749
C       2.732014    3.496702   -1.544586
C       3.929964    3.511458   -0.615355
C       4.508821    4.909306   -0.501533
O       5.659573    5.192993   -0.711023
H      -0.574921    2.492929    0.399970
H       1.905146    1.947039    0.630042
H       1.708130    0.623651   -0.544782
H       1.055108    2.324848   -2.309464
H       0.978802    4.580770   -1.728314
H       2.979614    3.738883   -2.577282
H       3.620116    3.207064    0.391376
H       4.713341    2.831763   -0.963022
H       3.765588    5.682153   -0.204001
