20

C      -0.391854    1.457808   -0.185881
C       0.250078    0.092443    0.119267
C       0.880235   -0.561327   -1.068099
C       2.212631   -0.811940   -1.377325
C       2.315541   -1.454279   -2.655002
C       1.017556   -1.566034   -3.093293
C      -0.135112   -1.987923   -3.990753
C      -1.056026   -1.379599   -2.862751
N       0.186533   -1.031580   -2.155103
H       0.351239    2.155461   -0.583554
H      -1.189895    1.363908   -0.929983
H      -0.828253    1.896927    0.717218
H       1.023488    0.215847    0.884478
H      -0.509299   -0.569000    0.559584
H       3.043311   -0.549344   -0.737366
H       3.221658   -1.773264   -3.145144
H      -0.210789   -1.481503   -4.957040
H      -0.261657   -3.063058   -4.144975
H      -1.660900   -0.516538   -3.156350
H      -1.682483   -2.103053   -2.332416
