18

C      -0.048557    1.409546   -0.135914
N      -0.029712   -0.018266    0.055618
C      -1.078203   -1.037617    0.018424
C      -1.593274   -1.534602   -1.364546
C      -0.512872   -1.499786   -2.408747
C      -0.488274   -2.597731   -1.388208
C       0.037940   -2.110533   -0.008826
C       1.025655   -0.914228   -0.007181
O       2.214743   -0.737476   -0.063826
H       0.988803    1.751085   -0.183011
H      -0.554827    1.683751   -1.070173
H      -0.551173    1.919760    0.693837
H      -1.819228   -0.984682    0.817225
H      -2.640519   -1.634689   -1.621092
H      -0.834785   -1.807414   -3.398345
H       0.244057   -0.721130   -2.414427
H      -0.555488   -3.641426   -1.665626
H       0.134533   -2.861429    0.771895
