23

C       0.022328    1.153285   -0.188231
O      -0.159274   -0.041383    0.546628
C      -1.361260   -0.684730    0.249466
C      -1.400294   -1.733704   -0.845514
C      -0.192166   -2.015465   -1.713501
C      -1.451109   -2.137146    0.624119
C      -0.303168   -2.832059    1.328694
C      -0.333351   -2.591039    2.841559
O       0.685824   -3.299923    3.530649
H       0.974529    1.585650    0.128420
H       0.052356    0.967594   -1.270723
H      -0.781962    1.875823    0.017240
H      -2.239449   -0.051660    0.389416
H      -2.349632   -1.815420   -1.369548
H       0.735066   -1.711951   -1.222797
H      -0.114042   -3.081149   -1.954888
H      -0.260526   -1.467820   -2.659729
H      -2.429833   -2.454955    0.977798
H      -0.342259   -3.912263    1.143169
H       0.654571   -2.472701    0.939676
H      -0.279066   -1.510109    3.039072
H      -1.278556   -2.953211    3.262081
H       1.532174   -2.950641    3.233992
