21

C      -0.077128    1.612438    0.031205
C       0.015042    0.095912    0.059070
C      -1.252577   -0.588597   -0.440844
O      -1.539386   -0.324021   -1.807303
C       1.264080   -0.675930   -0.266247
C       2.527824    0.035966    0.227922
C       1.965507   -0.067090    1.690383
O       1.791820    1.102418    2.466231
C       0.681768   -0.694067    1.162833
H       0.770432    2.092400    0.517223
H      -0.137137    1.980400   -1.000654
H      -0.977286    1.945473    0.562363
H      -1.143969   -1.675957   -0.370012
H      -2.100831   -0.300694    0.201047
H      -1.773859    0.605502   -1.884911
H       1.253157   -1.473214   -0.999536
H       3.442660   -0.544914    0.089904
H       2.691819    1.047886   -0.153315
H       2.538198   -0.816613    2.253103
H       2.656095    1.379675    2.786993
H       0.149948   -1.489005    1.674784
