16

O      -0.766769    1.111356   -0.399145
C       0.336725    0.889679    0.037112
C       1.401331    1.931493    0.052445
C       1.644235    3.100465    1.062093
C       2.840638    3.025644    0.080446
O       2.816924    1.542259    0.216531
C       1.838732    2.885364   -1.077339
C       1.876425    2.766225   -2.533250
N       1.127936    3.867064   -1.847493
H       0.630866   -0.100474    0.445723
H       0.981710    3.965677    1.003715
H       1.864201    2.776431    2.079683
H       3.811198    3.516151    0.125986
H       2.746108    3.095051   -3.094167
H       1.304781    1.967442   -2.998024
H       0.130509    3.662670   -1.845659
