15

O      -0.557216    0.750994    0.876397
C       0.077225    0.952678   -0.124449
C       1.331793    1.811801   -0.158374
C       1.299485    2.903630   -1.255567
C       2.573878    3.788168   -1.174504
C       2.529777    4.935874   -2.076738
N       2.479187    5.849433   -2.781322
C       1.168568    2.305243   -2.588558
N       1.079121    1.805849   -3.626521
H      -0.214857    0.506294   -1.099048
H       1.454167    2.274096    0.824451
H       2.189395    1.150115   -0.340604
H       0.427771    3.547866   -1.092321
H       2.680676    4.152576   -0.147617
H       3.459501    3.185095   -1.399976
