20

C      -0.481065    0.427579    1.201028
C      -0.189951    0.471830   -0.305956
C       1.147317   -0.196070   -0.656967
N      -1.301663   -0.085049   -1.090899
C      -1.653143   -1.279011   -1.000141
O      -1.188313   -2.343713   -0.240243
C      -2.304106   -3.188852   -0.674616
C      -2.796865   -2.069584   -1.613199
O      -4.090717   -1.594707   -1.342860
H       0.302721    0.955847    1.753565
H      -1.437925    0.909432    1.423037
H      -0.522802   -0.604215    1.560488
H      -0.124302    1.525136   -0.602947
H       1.155394   -1.243731   -0.343395
H       1.326138   -0.157124   -1.735604
H       1.971468    0.321814   -0.155674
H      -1.942481   -4.108571   -1.138138
H      -2.985545   -3.399332    0.152099
H      -2.655731   -2.291623   -2.679624
H      -4.068702   -0.638700   -1.468692
