16

C      -0.036110    1.495494   -0.028367
C       0.020811   -0.032952    0.033745
C       0.757036   -0.532383    1.267281
O       0.762319   -1.952315    1.244597
C       1.424284   -2.503485    2.351645
C       1.389796   -3.966664    2.259458
N       1.379707   -5.120170    2.215697
H       0.967845    1.932898   -0.058415
H      -0.569343    1.828921   -0.922736
H      -0.554596    1.912785    0.841798
H      -0.991118   -0.452872    0.039652
H       0.521362   -0.432903   -0.854992
H       1.792672   -0.151880    1.282848
H       0.264670   -0.171986    2.186661
H       2.478076   -2.181237    2.399938
H       0.952266   -2.202098    3.301915
