17

C       0.023814    1.473244    0.119563
C       1.296458    0.702092   -0.005606
O       1.668277    0.133079    1.253446
C       0.480076   -0.689489    1.246470
C       0.641376   -2.249092    1.269056
C      -0.302547   -2.257636    2.477637
O       0.342091   -1.494256    3.497202
C      -0.396114   -0.783811    2.495772
C      -0.019752   -0.037545   -0.036915
H      -0.221260    1.946018    1.066442
H      -0.287088    2.021129   -0.764906
H       2.072349    0.855947   -0.745459
H       0.244015   -2.724183    0.368636
H       1.649538   -2.611090    1.477622
H      -1.027624   -3.001579    2.783332
H      -1.181702   -0.116638    2.831588
H      -0.535481   -0.539881   -0.843836
