19

C      -0.256181    1.512556    0.213457
C       0.042631    0.047500    0.024043
C       1.066146   -0.410826   -1.055111
C       1.815969   -1.269430    0.007476
C       0.777646   -0.885705    1.092227
O       1.284568   -0.503091    2.323946
C      -0.485035   -1.730266    1.061249
N      -0.787967   -2.775468    1.709966
N      -1.108524   -0.869108    0.161757
H       0.673202    2.084610    0.295303
H      -0.823526    1.915891   -0.634063
H      -0.841453    1.673406    1.123192
H       0.621748   -0.963710   -1.886344
H       1.669589    0.402612   -1.465013
H       1.939113   -2.336684   -0.188026
H       2.787232   -0.844148    0.270283
H       0.720362   -0.888156    3.004554
H      -1.727914   -3.108152    1.487572
H      -1.746396   -1.145005   -0.574257
