17

O      -0.005557   -0.019460    0.075750
C       0.000465    1.185649   -0.025933
N      -1.103333    2.019617   -0.084481
C      -0.657559    3.413549    0.044025
C      -0.075584    3.626291    1.466517
C       1.212108    2.741303    1.424608
C       1.192300    2.153933   -0.023698
C       0.620106    3.345116   -0.817168
H      -1.989286    1.695055    0.274228
H      -1.428855    4.119080   -0.265099
H       0.159753    4.680320    1.642003
H      -0.782586    3.311105    2.238032
H       2.113106    3.343881    1.568020
H       1.215768    1.954555    2.182063
H       2.124128    1.699363   -0.352537
H       0.409114    3.118548   -1.864466
H       1.232326    4.248295   -0.746480
