10

F       0.000070    0.046985    0.003764
C      -0.022253    1.373057    0.010769
N      -1.198126    1.952062    0.029075
C      -1.181895    3.290586    0.035646
C       0.007552    4.009228    0.023741
N       1.198033    3.398527    0.005067
C       1.188297    2.070511   -0.001542
H      -2.144729    3.793337    0.050770
H       0.006399    5.094828    0.029271
H       2.135989    1.540889   -0.016645
