23

C       0.019766    1.656113    0.032913
C       0.111833    0.133197   -0.101379
C       0.681758   -0.523978    1.162541
C       0.742108   -2.064932    1.152220
C       1.478653   -2.641113   -0.070685
C       1.460975   -2.519870    2.442629
O       1.435186   -3.938721    2.510041
C      -0.666175   -2.665006    1.209665
O      -1.650915   -2.067800    1.565476
H       1.004584    2.099559    0.219707
H      -0.382353    2.111646   -0.877326
H      -0.633890    1.940235    0.864774
H      -0.884689   -0.274062   -0.303712
H       0.735905   -0.113701   -0.968406
H       1.695265   -0.138713    1.340033
H       0.071477   -0.216024    2.019020
H       2.473655   -2.192217   -0.160200
H       1.603931   -3.721490    0.033504
H       0.937906   -2.444941   -1.000695
H       2.494941   -2.139721    2.421115
H       0.954872   -2.072434    3.310972
H       1.846645   -4.211821    3.334717
H      -0.726492   -3.731631    0.904807
