16

C       0.111708   -1.186092   -0.005058
C       0.099855    0.009999    0.096054
C       0.056819    1.456274    0.233868
O       1.278434    2.013774   -0.265871
C       1.375236    3.390446   -0.089999
C       1.831355    3.920752    1.261295
C       2.774775    3.917646    0.088924
C       0.423642    4.177609   -0.849652
N      -0.355304    4.786846   -1.449778
H       0.123003   -2.244073   -0.099018
H      -0.797993    1.865915   -0.323667
H      -0.076908    1.734642    1.289919
H       1.426977    4.864432    1.607367
H       1.979331    3.166782    2.025817
H       3.548368    3.159545    0.063026
H       3.025170    4.858745   -0.385012
