17

N       0.339083   -0.359847   -0.655013
C      -0.019607    0.248388    0.633581
C       0.774341   -0.391339    1.756530
O       1.855247   -0.043284    2.158642
O       0.141051   -1.516266    2.194746
C       0.947307   -2.405645    2.943557
C       1.894245   -3.171829    2.004112
N       2.798540   -3.957933    2.653127
O       1.805588   -3.109841    0.795743
H       1.321818   -0.174164   -0.839613
H       0.274380   -1.372273   -0.567579
H       0.206458    1.316411    0.605496
H      -1.090444    0.113579    0.808042
H       1.521985   -1.866999    3.703377
H       0.263928   -3.106468    3.430238
H       2.985913   -3.839247    3.634512
H       3.501580   -4.415859    2.094932
