18

O      -0.098523    0.007167    0.116601
C       0.025962    1.190188   -0.087858
C       1.303348    1.930767   -0.042885
C       1.252263    3.419937    0.282230
C       1.603023    3.006043   -1.104262
C       3.063217    2.794319   -1.517582
N       3.623336    1.635461   -0.784041
C       3.807022    1.825682    0.661759
C       2.583168    1.156037    0.155558
H      -0.854723    1.827592   -0.337602
H       0.263120    3.842979    0.435049
H       2.005458    3.822201    0.947524
H       0.879189    3.203034   -1.888895
H       3.100815    2.560566   -2.586097
H       3.681744    3.684538   -1.356313
H       4.605937    1.228357    1.093910
H       3.737019    2.826467    1.078121
H       2.455978    0.083221    0.254112
