20

C      -0.054305    1.505512   -0.076630
C       0.037640   -0.005644   -0.011053
C       1.366309   -0.689357   -0.224341
C       0.703542   -0.730535    1.146300
C       1.329213    0.002952    2.312087
N       0.158749   -2.003156    1.549097
C      -0.705362   -2.559049    0.813976
O      -1.257286   -2.099184   -0.336460
C      -1.212569   -0.680736   -0.542114
H       0.868638    1.983295    0.257951
H      -0.236959    1.836113   -1.106790
H      -0.874194    1.886207    0.543520
H       1.398260   -1.615809   -0.788433
H       2.241794   -0.058503   -0.343227
H       1.837163    0.918474    2.000407
H       0.573094    0.265917    3.059495
H       2.062087   -0.647952    2.798420
H      -1.089863   -3.549254    1.049838
H      -2.094615   -0.239289   -0.056271
H      -1.317578   -0.538237   -1.623009
