15

O       0.098934    0.041942    0.281600
C      -0.015242    1.233263    0.134424
C      -1.282014    2.053626   -0.169614
C      -0.791077    3.476421   -0.175005
C       0.527168    3.475285    0.052037
C       1.479451    4.636105    0.086469
C       2.315204    4.654816    1.291295
N       2.983081    4.642912    2.233628
N       1.011713    2.166987    0.210401
H      -1.703671    1.729871   -1.128526
H      -2.042421    1.847218    0.591912
H      -1.399450    4.350872   -0.349227
H       2.148434    4.607743   -0.784270
H       0.913152    5.569770    0.025229
H       1.939670    1.923258    0.519146
