22

C      -0.478451    1.409196   -0.122197
C       0.027009   -0.035242   -0.021970
C       0.715652   -0.479023   -1.318779
C       0.975778   -0.223429    1.170594
N       0.293542    0.061690    2.432301
C      -0.332015   -1.054866    3.116460
C       0.903910   -0.419210    3.684458
C       2.147630   -1.140779    3.697420
C       3.208021   -1.708164    3.733642
H       0.351199    2.095474   -0.332324
H      -1.209140    1.514826   -0.930841
H      -0.944981    1.725736    0.813457
H      -0.839786   -0.691261    0.144349
H       1.602328    0.133461   -1.522368
H       1.037817   -1.524599   -1.267767
H       0.041362   -0.376602   -2.174996
H       1.398753   -1.240689    1.152565
H       1.819102    0.473603    1.085136
H      -1.295741   -0.861968    3.580233
H      -0.211582   -2.050583    2.692238
H       0.784168    0.276743    4.512075
H       4.138716   -2.218455    3.764647
