17

O      -0.128907    1.438360    0.011063
C       0.027171    0.028762    0.001703
C      -1.369458   -0.573391    0.011982
C      -1.362542   -2.079981    0.003635
O      -0.357632   -2.757334   -0.009560
C      -2.745876   -2.772366    0.013292
O      -3.760151   -2.122684    0.026505
C      -2.700304   -4.289119    0.004973
O      -4.010817   -4.787793    0.015032
H       0.746217    1.836705    0.004587
H       0.572149   -0.316208   -0.889192
H       0.589387   -0.326035    0.877905
H      -1.935996   -0.229052    0.886241
H      -1.952912   -0.219514   -0.847204
H      -2.120531   -4.597658   -0.880738
H      -2.103577   -4.606786    0.876078
H      -3.962563   -5.748045    0.009475
