19

C       0.544859    1.613809   -0.306342
C      -0.042482    0.223782   -0.005227
C       0.246473   -0.812830   -1.109417
C      -0.365397   -0.470247   -2.387261
C      -0.897977   -0.165428   -3.424893
C      -1.482620    0.197993   -4.715471
O      -0.788249    1.247012   -5.378086
C       0.449954   -0.261063    1.343679
O       1.003173   -1.312343    1.543078
H       1.634246    1.563627   -0.409614
H       0.131040    2.000529   -1.240393
H       0.312505    2.324760    0.492757
H      -1.132389    0.339972    0.097535
H       1.332586   -0.915772   -1.226511
H      -0.102967   -1.796478   -0.776360
H      -1.550480   -0.700145   -5.350227
H      -2.506735    0.562692   -4.578125
H       0.139691    0.993491   -5.420488
H       0.262802    0.454213    2.178315
