20

C      -2.225742    0.982210   -1.743965
C      -2.204979   -0.508918   -1.437867
O      -2.689710   -1.337854   -2.185303
N      -1.599116   -0.840009   -0.250675
C      -1.295721   -2.202938    0.095155
C      -0.128697   -2.798846   -0.655513
O       1.027019   -2.024875   -0.347457
C      -1.511320   -2.584235    1.539913
C      -2.449377   -3.089446    0.473641
H      -3.118809    1.207290   -2.328184
H      -2.209020    1.601230   -0.842778
H      -1.351880    1.238949   -2.352713
H      -1.031254   -0.134699    0.193633
H       0.002116   -3.850169   -0.355735
H      -0.351013   -2.777069   -1.731036
H       1.714677   -2.251012   -0.979985
H      -0.804193   -3.275027    1.984980
H      -1.875531   -1.813922    2.210104
H      -3.438103   -2.653781    0.411297
H      -2.398830   -4.133595    0.186102
