22

C       0.028013    1.514857    0.209066
C      -0.066767    0.020919   -0.111001
C      -1.467768   -0.527540    0.114128
O      -1.463172   -1.914063   -0.208591
C      -2.708815   -2.554858   -0.079004
C      -2.604112   -3.952927   -0.704280
C      -2.308104   -3.893161   -2.203702
C      -3.119699   -2.645203    1.343584
N      -3.435000   -2.711529    2.453434
H       1.043134    1.885805    0.042841
H      -0.647801    2.103197   -0.421331
H      -0.232644    1.716490    1.253644
H       0.219323   -0.164932   -1.152611
H       0.632339   -0.547093    0.512882
H      -1.775671   -0.384178    1.160987
H      -2.199388   -0.000513   -0.520813
H      -3.491550   -1.978905   -0.602438
H      -1.814754   -4.498199   -0.176574
H      -3.543311   -4.483062   -0.514392
H      -2.213980   -4.901361   -2.616390
H      -3.111930   -3.383689   -2.746636
H      -1.376721   -3.354904   -2.392612
