23

C      -0.142863    1.636519   -0.130780
C      -0.108009    0.109110   -0.030026
C      -1.475126   -0.584722    0.121356
C      -1.281004   -2.104659    0.147992
C      -2.238228   -0.093434    1.356319
O      -2.183780   -0.197151   -1.106467
C      -3.435042   -0.617203   -1.366216
C      -3.901495   -0.059626   -2.693832
O      -4.098549   -1.331410   -0.654582
H       0.862049    2.026706   -0.318333
H      -0.788795    1.958057   -0.951883
H      -0.507318    2.100879    0.790252
H       0.372708   -0.301373   -0.925647
H       0.510631   -0.195030    0.822662
H      -0.656809   -2.379505    1.004158
H      -2.236686   -2.621816    0.231887
H      -0.774095   -2.440757   -0.761884
H      -2.475005    0.970452    1.275218
H      -3.168284   -0.646586    1.483157
H      -1.617663   -0.235958    2.247035
H      -4.900936   -0.433966   -2.912285
H      -3.914146    1.033557   -2.656856
H      -3.209290   -0.349182   -3.489192
