16

C      -0.093481    1.563160   -0.017073
C       0.046814    0.048083    0.004303
C       0.690982   -0.631023   -1.215228
O       2.056021   -0.198686   -1.276088
C       1.721670   -1.273815   -0.390051
C       1.177606   -0.639335    0.903897
C       2.127263    0.258124    1.654863
O       2.114361    0.398007    2.853305
H       0.832005    2.036436   -0.354890
H      -0.896386    1.863763   -0.698652
H      -0.336562    1.951734    0.976888
H      -0.908243   -0.427117    0.247025
H       0.233152   -0.940022   -2.147701
H       2.256831   -2.207572   -0.514831
H       0.738780   -1.356998    1.599728
H       2.855697    0.802588    1.017843
