18

O      -0.026567    0.359008    1.121588
C       0.016773    1.144976    0.140886
O       0.867598    1.392048   -0.710485
C      -1.331777    1.952508    0.018298
C      -1.991960    2.181390   -1.365559
C      -3.272161    1.337388   -1.159965
C      -2.679092    0.077504   -0.475036
N      -2.391353    1.056304    0.643699
H      -2.010730    0.696086    1.531226
C      -3.697849    1.735332    0.288335
H      -1.276458    2.859437    0.625055
H      -2.217104    3.231492   -1.564495
H      -1.348285    1.803453   -2.162002
H      -3.999326    1.260968   -1.963510
H      -3.415569   -0.655400   -0.144192
H      -1.784466   -0.393462   -0.876752
H      -3.736422    2.787653    0.570869
H      -4.548946    1.177354    0.681361
