21

C      -0.185691    1.577715   -0.015573
C       0.000012    0.066732    0.003111
C       1.230622   -0.594635   -0.667416
C       2.153732   -0.180026    0.536679
C       3.129565   -1.321757    0.763825
C       2.395113   -2.418083    0.558054
C       1.019673   -1.873237    0.219473
C       0.765818   -0.628534    1.166255
C       0.408825   -0.665530    2.626627
H       0.733884    2.119690    0.223221
H      -0.520320    1.915660   -1.002845
H      -0.948715    1.886249    0.708173
H      -0.948105   -0.428828   -0.244087
H       1.509044   -0.584488   -1.725385
H       2.498881    0.847839    0.642397
H       4.172246   -1.229994    1.034582
H       2.676630   -3.460242    0.616108
H       0.193306   -2.551143   -0.002513
H       1.151445   -1.243151    3.188243
H       0.371465    0.343686    3.051771
H      -0.571766   -1.129586    2.781458
