17

C      -0.059063    1.596477   -0.148560
C      -0.036186    0.074972   -0.082572
C      -1.422814   -0.523947    0.226892
O      -1.904873   -0.100537    1.483332
C       0.742206   -0.664730   -1.197398
O       2.077004   -0.188111   -1.151527
C       1.729317   -1.264265   -0.254904
C       0.972101   -0.619748    0.891877
O       0.945645   -0.786746    2.080693
H       0.939443    1.995817   -0.336369
H      -0.726526    1.933490   -0.949949
H      -0.437172    2.002405    0.792484
H      -2.146369   -0.177997   -0.520527
H      -1.380155   -1.624263    0.156910
H      -1.240764   -0.349132    2.140626
H       0.378359   -1.087206   -2.126899
H       2.314682   -2.174257   -0.305972
