15

C      -0.009360    1.412296    0.102463
N      -0.000339   -0.030534   -0.047047
C       0.043327   -0.774512   -1.171099
C       0.029033   -2.075051   -0.720179
N      -0.021709   -2.053773    0.642064
N      -0.039854   -0.821666    1.052177
C       0.061727   -3.315450   -1.532553
N       0.038014   -4.454333   -0.792186
O       0.107203   -3.284223   -2.750642
H       0.896991    1.847431   -0.326249
H      -0.885957    1.842871   -0.388287
H      -0.047108    1.624782    1.170520
H       0.079557   -0.358714   -2.162995
H      -0.000609   -4.407763    0.212697
H       0.056529   -5.341799   -1.264093
