17

C       0.034270   -1.216235    0.091747
C      -0.029860   -0.013461    0.041251
C      -0.044938    1.405038   -0.024875
C      -1.192749    2.106457    0.031276
C      -1.195026    3.584041   -0.024434
O      -0.306380    4.286660    0.882428
C       0.016074    4.276601   -0.504094
C       1.196680    3.434366   -0.929115
C       1.291519    2.121001   -0.128996
H       0.073327   -2.276132    0.140876
H      -2.145270    1.594056    0.110628
H      -2.162089    4.068121   -0.138764
H      -0.101207    5.237690   -1.006518
H       1.085543    3.219041   -1.999955
H       2.127612    4.000457   -0.815210
H       1.645969    2.343132    0.883508
H       2.031811    1.458091   -0.584139
