14

N      -0.016985    1.389318   -0.127817
C      -0.010294    0.019643   -0.047918
C      -1.196902   -0.731273   -0.027483
C      -1.126942   -2.111240   -0.001856
C       0.124794   -2.736382    0.003716
N       1.262808   -2.055330   -0.008136
C       1.197955   -0.718612   -0.030320
C       2.432704    0.012678   -0.027666
N       3.374023    0.688129   -0.017391
H       0.843708    1.873458    0.079580
H      -0.853907    1.870536    0.158225
H      -2.154616   -0.220221   -0.036919
H      -2.032985   -2.707004    0.013929
H       0.207200   -3.818849    0.022034
