16

N       0.026533    1.326934    0.201257
C      -0.067295   -0.025812    0.017807
N      -1.193460   -0.633497    0.010317
C      -1.266496   -2.062132   -0.213657
C      -0.047567   -2.738676   -0.810256
N       0.504471   -2.115095   -2.007022
C       1.274161   -2.043329   -0.732673
C       1.288676   -0.691612   -0.123491
O       2.295553   -0.153898    0.290172
H       0.924580    1.654502    0.523476
H      -0.793177    1.786322    0.565044
H      -1.509887   -2.552158    0.740851
H      -2.125811   -2.254721   -0.870531
H      -0.032943   -3.825375   -0.746951
H       0.940869   -2.814125   -2.602883
H       2.196844   -2.606653   -0.639632
