17

C      -0.165999    1.381773    0.190547
C       0.002091   -0.089831    0.031024
O      -1.052734   -0.857255   -0.556313
C      -0.341031   -2.037692   -0.101433
C       0.488357   -1.184607    0.919416
C       1.329437   -0.817916   -0.302116
C       0.892513   -2.092619   -1.048639
C       1.825306   -3.236945   -0.768350
O       1.735426   -3.968360    0.188291
H       0.706939    1.811126    0.690839
H      -0.274206    1.867135   -0.785046
H      -1.053784    1.608381    0.788843
H      -0.967794   -2.903441    0.091724
H       0.714151   -1.271804    1.972173
H       2.285586   -0.310650   -0.337211
H       0.692528   -1.999341   -2.122846
H       2.643997   -3.368636   -1.512229
