15

N      -0.208974    1.422973    0.167905
C      -0.030651    0.046218    0.060962
N      -1.075999   -0.771857    0.016225
N      -0.516150   -2.018901    0.003490
C       0.838488   -1.976548    0.016108
N       1.588060   -3.151234   -0.003471
C       2.959019   -3.223282   -0.014648
O       3.711071   -2.278143   -0.013512
C       1.207879   -0.648456    0.058465
H       0.480266    1.957933   -0.341982
H      -1.146384    1.702032   -0.091033
H      -1.119468   -2.819367   -0.058439
H       1.087770   -4.026985    0.000801
H       3.298110   -4.276681   -0.025852
H       2.209621   -0.262550    0.097873
