20

N       0.171497    1.091973   -0.276978
C      -0.012637   -0.261973   -0.330995
O       0.858085   -1.007188   -0.741647
C      -1.382337   -0.728065    0.173459
C      -2.516320   -0.459165   -0.874284
C      -2.823732   -1.803368   -1.513770
C      -1.676575   -2.607322   -2.078061
C      -2.180940   -2.892729   -0.685920
C      -1.431106   -2.248794    0.473048
H       1.005512    1.472265   -0.693854
H      -0.571684    1.722087   -0.031031
H      -1.589355   -0.152956    1.082182
H      -3.410492   -0.089147   -0.360001
H      -2.226725    0.308045   -1.601558
H      -3.808034   -1.938511   -1.949026
H      -1.922423   -3.328630   -2.850270
H      -0.699512   -2.149634   -2.183563
H      -2.693148   -3.830588   -0.501204
H      -0.420313   -2.646580    0.594979
H      -1.978296   -2.423119    1.405750
