21

C       0.041899    1.418561   -0.297676
C       1.360081    0.743243   -0.012828
C       2.101376    1.018849    1.298307
C       1.209872    0.947919    2.519476
C       0.141029    0.163510    2.505425
C      -1.145138   -0.021619    3.284588
C      -1.818412   -0.378105    1.914119
C      -0.387430   -0.602657    1.315727
C       0.074614   -0.065983   -0.020319
H      -0.362939    2.069006    0.471011
H      -0.164945    1.743136   -1.311601
H       2.019644    0.604827   -0.864752
H       2.933718    0.305579    1.391428
H       2.570886    2.009925    1.245018
H       1.445231    1.580672    3.371550
H      -1.117837   -0.886063    3.958004
H      -1.533052    0.836442    3.840138
H      -2.509530   -1.223957    1.899449
H      -2.304428    0.492870    1.467723
H      -0.127846   -1.667863    1.384819
H      -0.085191   -0.717038   -0.875265
