17

C       0.400048    1.387986    0.018478
C      -0.008564   -0.068239    0.159209
O      -0.243053   -0.563898    1.240314
C      -0.070652   -0.841668   -1.121068
C       0.832428   -2.053984   -1.430082
O       1.077317   -2.840240   -0.280531
C      -0.344620   -3.134918   -0.139836
C      -0.664600   -2.211558   -1.322093
O      -1.684275   -2.373829   -2.231243
H       1.354695    1.469290   -0.513274
H      -0.343540    1.932272   -0.575715
H       0.484436    1.844754    1.005014
H      -0.181987   -0.239287   -2.020339
H       1.563101   -2.054614   -2.230517
H      -0.532114   -4.189489   -0.378036
H      -0.731876   -2.869359    0.842203
H      -1.628448   -3.263708   -2.599016
