14

O      -0.007378   -0.063621   -0.222950
C       0.023175    1.114248    0.017127
N      -1.162229    1.824393    0.247795
C      -1.514735    3.175672    0.157247
N      -0.824563    4.228732    0.046030
C       0.623070    4.191310    0.006188
C       1.280638    3.044224    0.760275
O       1.181985    1.785458    0.078093
H      -1.944308    1.184978    0.238239
H      -2.600227    3.280245    0.198312
H       0.961998    4.171262   -1.038498
H       0.992459    5.133445    0.430140
H       2.355677    3.217042    0.845207
H       0.864167    2.951483    1.769945
