16

O       0.065884    1.310141   -0.564584
C       0.073124    0.145003    0.239646
C      -1.307012   -0.449146    0.359990
O      -1.787091   -1.104197   -0.841463
C      -1.554754   -1.888093    0.307999
C      -0.627420   -3.099487    0.375234
O      -1.636289   -3.836673    1.100184
C      -2.599822   -2.764522    0.990859
H      -0.294984    1.055104   -1.421435
H       0.765796   -0.615342   -0.152654
H       0.435543    0.452417    1.226723
H      -2.053001    0.191395    0.832626
H      -0.401838   -3.544694   -0.602079
H       0.299008   -2.989693    0.951432
H      -2.963805   -2.431797    1.970082
H      -3.451168   -3.027403    0.350400
