19

C       0.128961    1.318486    0.147248
O       0.097307   -0.087458   -0.056172
C       0.640371   -0.544770   -1.281771
C      -0.099003   -0.054137   -2.512271
O       2.010710   -0.235237   -1.391475
C       2.744792   -1.129884   -0.536025
C       2.029916   -2.479729   -0.652280
C       0.625803   -2.086461   -1.111457
O      -0.304255   -2.808867   -1.337303
H       1.114953    1.734278   -0.088253
H      -0.631999    1.835217   -0.451569
H      -0.089074    1.482603    1.204854
H      -0.037174    1.032552   -2.603252
H       0.339487   -0.496011   -3.409809
H      -1.145687   -0.357810   -2.443295
H       3.774536   -1.141738   -0.896805
H       2.734675   -0.759631    0.495781
H       2.477758   -3.118520   -1.420396
H       1.985852   -3.054894    0.275183
