20

C      -0.294984    1.233601   -0.037206
N      -0.209863   -0.210118   -0.210408
C       0.636511   -0.682772   -0.998189
O       1.581280   -0.049456   -1.797035
C       2.100430   -1.329195   -2.265196
C       1.038069   -2.085650   -1.429244
C       1.504463   -3.037515   -0.361312
C       0.532278   -4.002233    0.265825
C       1.609397   -4.516058   -0.655262
H       0.461794    1.798418   -0.594054
H      -1.287718    1.575069   -0.351667
H      -0.199666    1.471491    1.027892
H       2.023659   -1.410925   -3.352235
H       3.137060   -1.471533   -1.946653
H       0.268813   -2.557790   -2.048543
H       2.260849   -2.624638    0.301148
H       0.622929   -4.197928    1.327958
H      -0.489852   -3.993978   -0.096468
H       1.314704   -4.860210   -1.641385
H       2.439329   -5.065355   -0.225189
