16

N       0.029824    1.358882    0.216488
C      -0.075066    0.011671    0.022156
N      -1.124076   -0.705122    0.087305
C      -0.673367   -2.084448   -0.086496
C       0.812857   -1.967552   -0.486069
O       0.944880   -2.215772   -1.867157
C       2.207582   -2.343596   -2.343130
N       2.400591   -2.434491   -3.584320
O       1.133917   -0.606118   -0.200534
H       0.790372    1.807821   -0.270298
H      -0.850923    1.847511    0.169127
H      -0.791985   -2.655849    0.841829
H      -1.232016   -2.596292   -0.874860
H       1.510259   -2.594553    0.077800
H       2.971057   -2.368821   -1.554448
H       3.393848   -2.552206   -3.774256
