20

C       0.019152    1.633673    0.015319
C       0.050255    0.114315   -0.008889
C       0.757652   -0.651479   -1.159339
C       2.251531   -0.292137   -1.043417
C       2.621261   -1.532595   -0.325791
N       2.449153   -0.266616    0.449692
C       1.040689   -0.665184    0.877854
C       1.104898   -1.836512   -0.156847
C       0.400062   -3.157084   -0.093643
H       1.027482    2.046089   -0.083136
H      -0.593493    2.030189   -0.801953
H      -0.402571    2.004456    0.955971
H      -0.953464   -0.305256    0.135090
H       0.318308   -0.800173   -2.145095
H       2.852882    0.382268   -1.639884
H       3.527243   -2.127674   -0.300436
H       0.938325   -0.768911    1.958377
H      -0.680453   -3.024502    0.032319
H       0.558195   -3.736350   -1.010810
H       0.761344   -3.760314    0.747470
