19

C      -0.250687    1.446508   -0.093943
C       0.027141   -0.037251   -0.002181
O      -1.192843   -0.750254   -0.051242
C      -1.023326   -1.918217    0.721227
O      -0.128172   -1.595240    1.769444
C       0.764779   -0.633924    1.242457
C       1.897365   -1.176403    0.325622
C       1.166173   -0.605873   -0.928233
O       0.667502   -1.539743   -1.857174
H       0.676821    2.022589   -0.018289
H      -0.724510    1.685656   -1.051339
H      -0.922789    1.757042    0.711089
H      -1.985755   -2.204628    1.154355
H      -0.620608   -2.730665    0.097535
H       1.062715    0.036690    2.050511
H       2.883126   -0.746687    0.520785
H       1.972715   -2.266600    0.334549
H       1.727670    0.193669   -1.431807
H       1.418205   -1.927090   -2.319132
