19

C       0.589378    0.618184    0.420038
O      -0.720717    0.943799   -0.007150
C      -1.602659   -0.081066    0.039287
C      -1.508430   -1.400228    0.417889
C      -2.811096   -1.978485    0.235396
C      -3.201719   -3.396980    0.514892
C      -3.637115   -0.988832   -0.244550
N      -5.003008   -0.936942   -0.612845
N      -2.880691    0.170857   -0.359885
H       1.182097    1.529583    0.328893
H       0.592483    0.280178    1.464390
H       1.026105   -0.169083   -0.207975
H      -0.627426   -1.903987    0.781772
H      -3.048128   -3.666277    1.567176
H      -4.259256   -3.561933    0.284901
H      -2.620078   -4.109318   -0.083167
H      -5.617851   -1.163300    0.161645
H      -5.220575   -1.576409   -1.369702
H      -3.232197    1.053664   -0.687731
