19

O      -0.196325    1.470932    0.153370
C       0.006157    0.067255    0.092427
C      -1.363302   -0.578738   -0.080569
C      -1.334419   -2.115996   -0.083865
C      -1.168134   -2.745062    1.336731
O      -2.565025   -3.076099    1.403149
C      -2.760650   -2.740190    0.019027
C      -0.482875   -2.659090   -1.128139
C       0.213021   -3.120046   -1.994323
H       0.664219    1.896197    0.208277
H       0.655699   -0.211627   -0.749657
H       0.485397   -0.305584    1.012956
H      -2.016514   -0.245441    0.733798
H      -1.805258   -0.221103   -1.017177
H      -0.528201   -3.635108    1.358766
H      -0.868210   -2.055401    2.134012
H      -3.593825   -2.043381   -0.127302
H      -2.904901   -3.627873   -0.608083
H       0.827736   -3.527687   -2.758439
