16

C       0.944282    1.947306   -0.039858
C       0.202949    0.617348   -0.054894
N       0.454061   -0.089209   -1.315703
C      -0.390241   -1.005503   -1.836650
O      -1.423397   -1.382935   -1.306740
C       0.614384   -0.265669    1.152913
N      -0.229323   -1.306586    1.370528
O       1.594431   -0.022250    1.830505
H       2.025400    1.783852   -0.038530
H       0.663107    2.553954   -0.905170
H       0.704058    2.499471    0.870705
H      -0.879421    0.775692   -0.006270
H       1.315206    0.105697   -1.803089
H      -0.051676   -1.386244   -2.817779
H      -0.935324   -1.537807    0.681553
H       0.031563   -1.984467    2.068782
