15

C      -0.164495    1.545640   -0.008557
C       0.108312    0.052831   -0.026933
O       1.222016   -0.417275   -0.167917
N      -1.007457   -0.737450    0.101450
C      -0.998012   -2.125699    0.065507
C       0.037973   -3.020544   -0.081555
N      -0.599684   -4.218909   -0.033754
N      -1.921296   -4.086791    0.129202
N      -2.169416   -2.806112    0.190643
H       0.683140    2.049059    0.458171
H      -0.245315    1.909819   -1.038256
H      -1.083764    1.807834    0.521826
H      -1.917680   -0.319748    0.217612
H       1.095813   -2.892372   -0.205527
H      -0.203241   -5.142465   -0.103904
