20

C      -0.010135    1.550221    0.034480
C       0.013017    0.025334   -0.001982
C       0.688959   -0.518313   -1.275146
N       0.834404   -1.978463   -1.296137
C       1.473244   -2.471955   -0.069947
C       0.791417   -1.940749    1.222874
N       0.650311   -0.491836    1.217946
C       1.512442   -3.937296   -0.075622
N       1.512462   -5.092081   -0.033301
H       1.008342    1.956879    0.004461
H      -0.553525    1.955766   -0.824176
H      -0.489189    1.904275    0.950912
H      -1.023121   -0.346980    0.010808
H       0.131652   -0.222499   -2.170718
H       1.693813   -0.078701   -1.361809
H      -0.079480   -2.414085   -1.390589
H       2.512221   -2.110734   -0.078486
H      -0.206141   -2.392712    1.297496
H       1.357626   -2.248826    2.107643
H       1.561364   -0.054321    1.333573
