17

O       0.485571    0.876726    0.503130
C       0.149053   -0.376165   -0.024969
C      -1.381418   -0.663484   -0.225393
N      -1.057286   -0.979462   -1.634270
C       0.235610   -0.479307   -1.545015
N       1.154046   -0.094803   -2.323502
C      -1.995400   -1.777313    0.581736
C      -2.623363   -2.955164   -0.030854
O      -1.321833   -3.034713    0.549381
H       1.120702    1.267757   -0.110079
H       0.647990   -1.195659    0.505390
H      -1.958653    0.260312   -0.104044
H      -1.677479   -0.863406   -2.424435
H       0.894281   -0.167964   -3.308220
H      -2.328987   -1.473634    1.575556
H      -3.410698   -3.485983    0.502277
H      -2.646179   -3.040760   -1.115526
