17

C       0.018494    1.544706    0.076681
C       0.023620    0.048707    0.020033
C      -0.006728   -0.772445   -1.111870
N       0.028974   -2.076784   -0.686369
C       0.071774   -2.120039    0.672745
C       0.071653   -0.812150    1.145218
N       0.189187   -0.391115    2.481948
C      -0.062282   -0.494825   -2.525148
O      -0.081475   -1.363084   -3.383590
H       0.861688    1.917488    0.670219
H       0.086612    1.992413   -0.917204
H      -0.896858    1.932345    0.543996
H       0.018068   -2.848240   -1.332896
H       0.106604   -3.054824    1.210192
H      -0.051546   -1.116753    3.144683
H      -0.369661    0.429658    2.680167
H      -0.087880    0.580299   -2.797368
