16

N      -0.400922    1.238512   -0.276636
C      -0.212946   -0.005240   -0.212668
O      -1.247601   -0.808318    0.151532
C      -0.982334   -2.212100    0.189818
C      -2.219579   -2.922791    0.715460
C      -3.028105   -3.166216   -0.568844
O      -2.049445   -3.290742   -1.621225
C      -0.868288   -2.745197   -1.254678
O       0.081712   -2.673861   -1.979822
H       0.461531    1.706094   -0.548434
H       0.713063   -0.550311   -0.423953
H      -0.066157   -2.417291    0.750402
H      -1.930582   -3.875123    1.168650
H      -2.754911   -2.325794    1.454634
H      -3.613452   -4.086711   -0.552745
H      -3.685515   -2.324953   -0.807599
