15

N      -0.085614    1.561450   -0.119795
C       1.373962    1.245361   -0.014895
C       1.246407    0.097708    1.020938
C      -0.044605    0.080131    0.039581
C       1.212988   -0.078114   -0.873601
N       1.832188   -0.244489   -2.167350
C       2.999055   -0.629460   -1.800576
O       3.281365   -0.870452   -0.470699
C       1.948393   -0.928984    0.115937
H      -0.411567    1.998041    0.747042
H       2.158698    1.995097   -0.101278
H       1.214202    0.183359    2.107706
H      -0.928676   -0.553682    0.108793
H       3.843828   -0.780440   -2.463092
H       1.678510   -1.981064    0.247102
