18

C      -0.297032   -0.597156   -0.872379
N      -0.181747   -0.769241    0.559493
C      -1.192645   -0.123372    1.425084
C      -0.075421    0.261789    2.423885
C       0.909295   -0.079085    1.285115
C       2.083658   -0.982671    1.633712
O       2.447646   -1.175649    2.773031
C       2.753039   -1.609755    0.505151
C       3.326739   -2.098396   -0.434030
H       0.561055   -1.053777   -1.372974
H      -1.202679   -1.099483   -1.228169
H      -0.352197    0.465938   -1.176767
H      -1.652395    0.760378    0.954768
H      -1.987625   -0.791826    1.771244
H      -0.067910    1.289314    2.784963
H       0.028317   -0.421858    3.266417
H       1.292323    0.811510    0.755655
H       3.841673   -2.542818   -1.251103
