22

C       0.122624   -0.232430    1.160461
C       1.511341   -0.772573    0.793278
C       1.739660   -0.972475   -0.699160
C       1.696658    0.310114   -1.534389
C       2.720157    1.281097   -1.138563
N       3.530246    2.037720   -0.811389
C       2.726447   -2.025466   -1.149585
C       1.250135   -2.222079   -1.409028
C       0.468311   -3.325115   -0.727937
H      -0.050495    0.766464    0.747141
H      -0.672017   -0.889407    0.792566
H       0.016311   -0.152736    2.246429
H       2.281068   -0.089751    1.174630
H       1.676554   -1.723150    1.309511
H       1.843898    0.073956   -2.593713
H       0.716638    0.795302   -1.457253
H       3.383702   -1.805275   -1.984536
H       3.185941   -2.634950   -0.377670
H       0.943068   -2.059226   -2.440358
H       0.798393   -3.490749    0.300996
H      -0.604232   -3.103521   -0.703970
H       0.598063   -4.270007   -1.266912
