25

C       0.124681    1.427907    0.006498
C       0.094125   -0.100532    0.133824
C      -1.305937   -0.663651    0.259075
C      -2.131364   -0.940097   -0.973382
C      -1.604454   -2.085299   -0.141889
C       1.542407    1.999313   -0.123188
C       1.571497    3.508285   -0.246169
C       1.539638    4.376171    0.987711
C       2.795444    4.291461    0.153278
H      -0.472479    1.728606   -0.864674
H      -0.366430    1.878020    0.879520
H       0.584843   -0.549652   -0.740965
H       0.691806   -0.404848    1.004738
H      -1.859210   -0.292163    1.119030
H      -3.195074   -0.730460   -0.947923
H      -1.669317   -0.764332   -1.939905
H      -0.791470   -2.675748   -0.552426
H      -2.308225   -2.656395    0.453779
H       2.138491    1.698663    0.749773
H       2.037093    1.549959   -0.995934
H       1.025861    3.894955   -1.104308
H       0.965957    5.296197    0.964957
H       1.541520    3.880328    1.953467
H       3.636973    3.740425    0.561082
H       3.078152    5.153065   -0.441682
