14

O      -0.033714    1.394744   -0.073745
C       0.016429   -0.003651   -0.010558
C       0.994538   -0.525447   -0.971915
N       1.795993   -0.897628   -1.716853
C      -0.012454   -0.693836    1.417522
C      -1.482463   -0.146102    1.514747
C      -1.397545   -0.675319    0.034292
C      -0.679781   -1.871125    0.689141
O      -0.707529   -3.058798    0.700895
H       0.854137    1.743327    0.065927
H       0.772691   -0.681871    2.169434
H      -2.158082   -0.675361    2.185357
H      -1.558155    0.934351    1.601166
H      -2.152703   -0.640526   -0.746061
