19

C       1.279087    0.927855   -0.351833
C      -0.002251    0.270231    0.178437
O      -0.647526   -0.629095   -0.717409
C       0.137586   -1.576474   -1.418497
C       0.593478   -2.731315   -0.535380
O       1.436306   -2.297481    0.518662
C       0.767269   -1.796718    1.653153
C       0.260679   -0.350702    1.560254
O       0.073318    0.285151    2.570456
H       2.110467    0.221705   -0.412462
H       1.099537    1.357230   -1.342057
H       1.566306    1.734576    0.327977
H      -0.747130    1.051673    0.355397
H      -0.506376   -1.963043   -2.216691
H       1.008913   -1.106077   -1.891132
H      -0.282945   -3.258477   -0.128554
H       1.176349   -3.441965   -1.132542
H      -0.096580   -2.429382    1.917607
H       1.468720   -1.835648    2.491224
