22

C      -0.009081    1.579284   -0.021956
C       0.026200    0.048663   -0.006427
C       0.682345   -0.534734    1.239541
C       0.681335   -2.059167    1.293617
C       1.476089   -2.539467    2.515805
C       1.725656   -4.048303    2.493559
N       2.763626   -1.847484    2.635618
C       2.920535   -0.752728    2.024572
O       2.042130   -0.044841    1.275343
H       1.001254    1.991531    0.035732
H      -0.478120    1.949733   -0.938121
H      -0.580578    1.970175    0.827266
H      -0.993065   -0.352835   -0.064280
H       0.563488   -0.325771   -0.886302
H       0.179677   -0.139653    2.135414
H      -0.349866   -2.427196    1.324083
H       1.142552   -2.451554    0.378082
H       0.898639   -2.307453    3.423026
H       2.310391   -4.327087    1.610698
H       2.290567   -4.349480    3.379350
H       0.781227   -4.602296    2.471750
H       3.878257   -0.234503    2.050183
