21

C       0.081150    1.533721   -0.062495
C      -0.027450    0.031716    0.064322
C      -1.270776   -0.601118   -0.539269
C      -1.322590   -2.117275   -0.315895
C      -1.160938   -2.446608    1.170687
O      -1.277284   -3.837607    1.439544
C       0.213536   -2.018059    1.692746
C       0.680387   -0.681291    1.147116
O       1.187308   -0.687153   -0.198477
H       1.019369    1.890794    0.369335
H       0.055188    1.832842   -1.116334
H      -0.750993    2.031489    0.447078
H      -2.153238   -0.123812   -0.091873
H      -1.304279   -0.369736   -1.611050
H      -2.280086   -2.510852   -0.679695
H      -0.526739   -2.610247   -0.882656
H      -1.935824   -1.890129    1.727594
H      -2.136381   -4.130854    1.119151
H       0.198026   -1.987527    2.786892
H       0.941277   -2.786293    1.406426
H       1.287367   -0.084106    1.828978
