19

C      -0.338268    1.509515    0.125712
C      -0.027055    0.028477    0.027244
C      -1.192021   -0.820040   -0.450138
C       1.352466   -0.405512   -0.362897
C       0.891709   -0.636994    1.063407
C       1.540947    0.157801    2.151868
N       1.438400   -0.398446    3.399134
O       2.136711    1.206315    1.966128
H       0.511760    2.071909    0.512785
H      -0.599717    1.902227   -0.863869
H      -1.196331    1.685375    0.785663
H      -1.520066   -0.496919   -1.445089
H      -0.923188   -1.879088   -0.516116
H      -2.050610   -0.730146    0.225507
H       1.472417   -1.275337   -1.000137
H       2.109414    0.363201   -0.474588
H       0.618643   -1.653112    1.333327
H       0.821184   -1.169124    3.585585
H       1.770590    0.146357    4.178284
