16

O      -0.107972    1.446532   -0.155288
C       0.045402    0.034957   -0.110105
C      -1.343352   -0.547718    0.064550
C      -2.251407   -0.466078   -1.176924
O      -2.203024   -1.900060   -1.366321
C      -1.486255   -2.088742   -0.122050
C      -0.285356   -2.898584   -0.253396
C       0.704036   -3.575694   -0.344188
H       0.752524    1.837450   -0.331973
H       0.496979   -0.352689   -1.035583
H       0.690756   -0.277892    0.725043
H      -1.785992   -0.167960    0.987318
H      -3.273203   -0.115941   -0.988572
H      -1.836368    0.077185   -2.032544
H      -2.142784   -2.541861    0.633964
H       1.575020   -4.177534   -0.430666
