16

O      -0.026121    1.355104    0.017575
C       0.072871   -0.016723   -0.022593
C       0.846948   -0.902609   -0.983753
N      -0.064267   -2.046764   -0.570582
C      -1.061647   -0.985867   -0.051478
C      -0.245487   -0.907644    1.209120
C       0.366387   -2.266144    0.888808
C      -0.301718   -3.402976    1.495946
C      -0.849289   -4.332517    2.025563
H       0.685075    1.701068    0.568379
H       0.654201   -0.649792   -2.029459
H       1.916698   -1.090161   -0.834514
H      -2.113881   -0.933553   -0.287680
H      -0.516847   -0.471638    2.162469
H       1.453161   -2.372960    0.995571
H      -1.333813   -5.159362    2.482932
