18

C      -0.600359    1.431932    0.177519
C      -0.145325   -0.010950    0.128063
C       1.222074   -0.384547   -0.335223
N       0.831091   -0.595834    1.057608
C       1.471537    0.272036    2.061346
C       0.589881    0.427508    3.225939
C      -0.140030    0.579623    4.166768
C       2.768021   -0.302303    2.444537
C       3.841334   -0.751365    2.739266
H       0.230912    2.137100    0.256948
H      -1.143147    1.673751   -0.742114
H      -1.275633    1.603288    1.021655
H      -0.952554   -0.710050   -0.084544
H       1.402626   -1.284739   -0.915890
H       1.905418    0.436417   -0.551869
H       1.673877    1.282593    1.664198
H      -0.779481    0.703459    5.005666
H       4.784954   -1.157054    3.009185
