20

C       0.066469    1.426209    0.203257
N      -0.086799   -0.002881   -0.070233
C       0.637036   -0.479111   -1.246206
C       2.105455   -0.389428   -1.078092
N       3.243686   -0.315935   -0.885527
C       0.187785   -1.926365   -1.590652
N      -1.251301   -2.031869   -1.822700
C       0.901801   -2.510896   -2.815586
O       0.464955   -3.826669   -3.060630
H       1.111227    1.748906    0.329648
H      -0.370791    2.000445   -0.620458
H      -0.485676    1.673653    1.113455
H       0.214785   -0.537802    0.739143
H       0.364110    0.171845   -2.087999
H       0.427104   -2.564962   -0.730146
H      -1.750667   -1.689275   -1.007454
H      -1.518818   -1.422513   -2.593781
H       0.714990   -1.851203   -3.684825
H       1.983529   -2.541589   -2.656776
H      -0.486075   -3.816208   -2.880772
