15

O      -0.025441    0.001938   -0.170928
C      -0.027284    1.184410    0.009527
C      -1.136961    2.271306    0.045087
O      -1.393572    2.607533    1.407149
C      -0.320745    3.418050    1.819397
C       0.256199    4.240664    0.720592
C       1.086124    3.107248    1.356765
C       1.043905    2.273071    0.041571
C      -0.039099    3.299540   -0.462878
H      -2.078778    2.111564   -0.481008
H      -0.458980    3.813192    2.817859
H       0.378733    5.314776    0.706546
H       1.938042    3.157890    2.024265
H       2.006570    2.124580   -0.447240
H      -0.084416    3.642722   -1.491507
