14

O       0.013699   -0.034129    0.004263
C       0.011930    1.169924    0.009516
C      -1.232394    2.093482    0.031583
C      -0.738135    3.573908    0.031397
C       0.753940    3.417958    0.009553
C       1.142458    2.116651   -0.001969
O       2.473091    1.994284   -0.021199
N       3.007188    3.284657   -0.022847
C       1.987003    4.118122   -0.004675
H      -1.853961    1.860441   -0.837787
H      -1.828988    1.852303    0.916098
H      -1.107755    4.126141   -0.838680
H      -1.082875    4.118034    0.916665
H       2.193386    5.179029   -0.002714
