13

O      -0.018270    1.398398    0.262808
C      -0.041386    0.025948    0.141806
C      -0.440408   -0.775663    1.334841
O      -1.158930   -0.089256    2.332490
C      -2.295169    0.354414    1.737055
N      -2.536336    0.014798    0.534566
C      -1.384602   -0.736002    0.101115
C      -1.566032   -1.805557   -0.835701
N      -1.660403   -2.672644   -1.595240
H      -0.352196    1.789482   -0.553067
H       0.733243   -0.430995   -0.472861
H       0.119425   -1.624809    1.703165
H      -2.930055    0.965983    2.364368
