22

C      -0.098824    1.398943   -0.319426
C       0.053399   -0.024602    0.166165
N       1.266270   -0.859027   -0.018192
C       2.454263    0.035639    0.215988
C       2.002298    0.390569    1.652528
C       0.766082   -0.478640    1.383546
C       0.198428   -1.491299    2.343077
C       1.213504   -2.536925    2.821137
O       0.640729   -3.478476    3.715609
H       0.700910    2.062767    0.014587
H      -0.127456    1.429761   -1.414280
H      -1.043891    1.812427    0.048082
H      -0.821411   -0.632011   -0.062966
H       3.366373   -0.563241    0.181159
H       2.549791    0.855285   -0.502708
H       2.664025   -0.021018    2.416222
H       1.815742    1.441691    1.894056
H      -0.222932   -0.978078    3.217694
H      -0.634645   -2.013950    1.854636
H       1.666984   -3.028315    1.947796
H       2.022136   -2.059304    3.383975
H      -0.014550   -3.985533    3.225800
