25

C       0.065221    1.415719   -0.123062
C       0.029920   -0.091414    0.074274
O      -1.309975   -0.523310   -0.045563
C      -1.504949   -1.933389    0.002986
C      -1.453102   -2.460962    1.439633
C      -2.856887   -2.210525   -0.661596
C      -2.905451   -1.799360   -2.117054
C      -2.430339   -2.746836   -3.191683
C      -3.900522   -2.429172   -3.055615
H       1.090678    1.788287   -0.039456
H      -0.323657    1.682895   -1.109859
H      -0.548248    1.915368    0.632183
H       0.658264   -0.594217   -0.680267
H       0.444906   -0.350459    1.061375
H      -0.714244   -2.422554   -0.591256
H      -1.600138   -3.545765    1.456786
H      -0.489455   -2.250369    1.912052
H      -2.238866   -1.995201    2.043131
H      -3.078898   -3.281476   -0.572323
H      -3.631452   -1.678024   -0.093800
H      -2.688518   -0.748843   -2.280034
H      -1.891379   -2.342768   -4.041617
H      -2.097799   -3.734443   -2.887004
H      -4.549939   -3.204478   -2.661220
H      -4.366182   -1.806860   -3.812039
