20

C      -0.087180    1.543713    0.083759
C       0.115323    0.059768    0.028336
N      -0.801342   -0.863287    0.735558
C       0.649943   -0.922496    1.025620
C       1.296054   -1.783296   -0.080104
C       0.385240   -2.787259   -0.821339
O      -0.056966   -1.766558   -1.753627
C       0.779054   -0.768820   -1.130650
C       1.643108   -0.013291   -2.106633
H       0.795459    2.086496   -0.268897
H      -0.937600    1.850261   -0.536773
H      -0.289093    1.869843    1.110503
H      -1.236368   -0.324561    1.484534
H       1.020770   -0.764389    2.031725
H       2.355281   -2.010004    0.032416
H       0.925189   -3.586641   -1.342930
H      -0.445720   -3.201266   -0.244872
H       1.023498    0.594005   -2.776217
H       2.337098    0.653960   -1.585066
H       2.222958   -0.709382   -2.718930
