16

C       0.003680    1.537778    0.028863
C       0.009693    0.033490    0.014440
C      -1.148192   -0.679447    0.047007
N      -2.414114   -0.150893    0.143102
O      -1.201964   -2.035396    0.039659
C      -0.032107   -2.727681    0.008345
C       1.165892   -2.137014   -0.021956
C       1.288881   -0.671078   -0.025156
O       2.376470   -0.102902   -0.059042
H       1.040425    1.879285    0.011595
H      -0.507214    1.963513   -0.845635
H      -0.480918    1.942632    0.925677
H      -2.508466    0.803335   -0.167314
H      -3.155368   -0.761409   -0.167435
H      -0.218807   -3.793810    0.011737
H       2.069458   -2.732844   -0.046563
