16

O       0.052392    1.373848    0.148429
C       0.031073   -0.016385    0.021429
C      -1.422947   -0.552616   -0.022717
O      -1.442736   -1.953214   -0.209184
C      -0.897210   -2.335936   -1.454885
C       0.594441   -1.939150   -1.563560
C       0.727805   -0.467070   -1.254891
O       1.266090    0.347727   -1.974603
H       0.559871    1.690439   -0.616978
H       0.535653   -0.500481    0.873962
H      -1.926264   -0.343260    0.923625
H      -1.965132   -0.030529   -0.827208
H      -1.010785   -3.420119   -1.529987
H      -1.461347   -1.873905   -2.281083
H       1.158930   -2.513594   -0.819797
H       0.998397   -2.150346   -2.556894
