23

C      -0.064685    1.525211   -0.032604
C      -0.006221    0.001684    0.017631
O       0.588939   -0.400855   -1.212987
C       0.658144   -1.798201   -1.435572
C       1.862935   -2.477563   -0.766919
C       2.038520   -2.163575    0.724238
C       0.697349   -2.035774    1.502258
C       0.752434   -0.500099    1.262238
C       2.280691   -0.651751    1.015800
H       0.943715    1.950637   -0.006984
H      -0.548672    1.852520   -0.956306
H      -0.628028    1.918887    0.818326
H      -1.035663   -0.398285    0.057540
H      -0.280730   -2.275832   -1.113963
H       0.727253   -1.929529   -2.521073
H       1.747999   -3.561011   -0.907243
H       2.778106   -2.187190   -1.298301
H       2.776891   -2.847899    1.151965
H      -0.173493   -2.586037    1.131969
H       0.825034   -2.272579    2.562241
H       0.451622    0.114040    2.116317
H       2.856656   -0.503608    1.933104
H       2.718098   -0.053075    0.213538
