19

C      -0.033435    1.495323    0.116561
C       0.088776    0.012534   -0.016685
C      -0.018366   -0.754061   -1.114824
C       0.035726   -2.188628   -0.747020
C       0.626177   -2.295769    0.643868
C       0.107277   -0.930721    1.167620
O      -1.273762   -1.494883    1.228630
C      -0.820384   -2.625370    0.510462
C      -1.641942   -3.868869    0.574924
H       0.821884    1.924350    0.654366
H      -0.093937    1.979290   -0.862209
H      -0.931695    1.770966    0.683789
H      -0.222673   -0.397353   -2.117766
H       0.233138   -2.967257   -1.474486
H       1.501624   -2.859287    0.942517
H       0.407419   -0.549740    2.143653
H      -2.639605   -3.687127    0.160853
H      -1.172687   -4.669047   -0.004476
H      -1.759668   -4.209037    1.609007
