21

C      -0.223156    1.526531    0.071887
C      -0.080471    0.039952   -0.006052
C      -0.060302   -0.730784   -1.097317
C       0.079792   -2.199107   -0.794345
C       1.482023   -2.817624   -1.070782
C       1.883290   -2.493304    0.395656
C       0.388070   -2.198232    0.736361
C       0.037617   -0.792467    1.267278
O       0.940642   -0.258992    2.229227
H       0.583830    1.963059    0.670486
H      -0.218609    1.989616   -0.918311
H      -1.158793    1.803274    0.575539
H      -0.142152   -0.356674   -2.114341
H      -0.774683   -2.782703   -1.152429
H       1.427800   -3.893403   -1.258261
H       2.078958   -2.356539   -1.862314
H       2.355931   -3.297210    0.963157
H       2.530446   -1.613144    0.462661
H      -0.072873   -2.998929    1.316252
H      -0.923366   -0.805978    1.799743
H       1.820649   -0.263011    1.837371
