17

C      -0.121024    1.334774    0.059204
O       0.085720   -0.081067    0.010343
C       0.756147   -0.587100    1.035818
N       1.231258    0.054032    2.036051
C       1.781717   -0.994287    2.873728
C       0.924070   -2.243653    3.200972
C      -0.161685   -2.407364    2.155887
N       0.849541   -2.027392    1.054962
C       1.940170   -2.245849    2.081520
H       0.837526    1.860761    0.065752
H      -0.689732    1.583371   -0.837001
H      -0.676311    1.609296    0.960446
H       2.508248   -0.704575    3.621984
H       0.972836   -2.713771    4.175004
H      -0.454953   -3.448481    2.010684
H      -1.053498   -1.772217    2.191821
H       2.820387   -2.836644    1.861204
