27

C      -0.187844    1.625717    0.061544
C       0.002347    0.108603   -0.005704
C       0.729999   -0.466311    1.216676
O       0.046823   -0.138201    2.428450
C       0.968186   -1.977999    1.098066
C       1.774804   -2.555310    2.266564
C       1.883843   -4.090350    2.292331
C       2.621389   -4.651662    1.068287
C       2.561129   -4.556079    3.588629
H       0.778207    2.142712    0.065705
H      -0.759589    1.993404   -0.795856
H      -0.715628    1.906525    0.976568
H      -0.975560   -0.388007   -0.094630
H       0.562311   -0.162478   -0.909514
H       1.701410    0.037377    1.316577
H      -0.819053   -0.561227    2.393209
H      -0.009898   -2.481297    1.037257
H       1.471675   -2.177087    0.144495
H       2.787169   -2.125236    2.253250
H       1.313429   -2.212196    3.199341
H       0.860915   -4.496094    2.284098
H       2.112673   -4.407031    0.131043
H       3.640355   -4.249277    1.010064
H       2.699994   -5.742517    1.124934
H       2.025303   -4.192389    4.471698
H       2.603393   -5.648943    3.646085
H       3.590360   -4.181702    3.647962
