16

O      -0.088294    1.404705    0.016751
C      -0.011648   -0.018962   -0.006259
C       0.583403   -0.551848    1.338631
N      -0.580848   -0.628494    2.191059
C      -1.785282   -0.642271    1.538401
O      -2.874279   -0.760567    2.050412
C      -1.470142   -0.512790    0.045019
C       0.752330   -0.482350   -1.164133
C       1.407288   -0.833296   -2.108978
H       0.800322    1.751962   -0.118788
H       1.066182   -1.527418    1.193952
H       1.330498    0.151767    1.719962
H      -0.537297   -0.774158    3.186654
H      -2.141973    0.189072   -0.448371
H      -1.578418   -1.494126   -0.424912
H       1.973685   -1.148069   -2.950928
