19

C       0.049244   -1.232567    0.043283
C       0.021133   -0.030392    0.031842
C      -0.003391    1.429957    0.032944
C      -0.727279    2.048004    1.250549
C      -0.210674    1.789608    2.640102
C       0.208956    3.041233    1.906613
C       1.509877    3.063652    1.125190
C       2.385941    1.834356    1.080380
C       1.395437    2.084597   -0.024513
H       0.068841   -2.293928    0.045711
H      -0.546646    1.759459   -0.862012
H      -1.785327    2.251935    1.129922
H      -0.921492    1.907607    3.451472
H       0.502305    0.990817    2.804852
H      -0.157573    3.994041    2.271370
H       1.979751    4.030870    0.987562
H       3.432743    1.982656    0.836002
H       2.216919    1.020351    1.774915
H       1.780439    2.313406   -1.011946
