17

O      -0.055487    1.522540   -0.183992
C       0.052953    0.128856   -0.030507
C      -1.330564   -0.569600    0.029076
C      -1.256877   -2.107974   -0.059791
N      -1.014575   -2.818463    1.193662
C      -1.431681   -2.260955    2.249644
N      -2.043278   -1.004496    2.324050
C      -2.008946   -0.085621    1.296193
O      -2.408609    1.054827    1.450556
H      -0.763951    1.826198    0.401545
H       0.592832   -0.252502   -0.904567
H       0.643946   -0.144547    0.860506
H      -1.906812   -0.176541   -0.814143
H      -2.199668   -2.495135   -0.470663
H      -0.477409   -2.396094   -0.773209
H      -1.331958   -2.758677    3.213207
H      -2.364062   -0.654499    3.216359
