19

C       0.312188    1.594784   -0.340342
C      -0.030445    0.160031    0.062118
O       0.390240   -0.747630   -0.965123
C       1.215628   -1.769143   -0.420876
C       1.382582   -1.417670    1.035695
C       2.251961   -2.216817    1.970517
C       1.876240   -3.629174    2.038762
C       1.559432   -4.787394    2.081965
C       0.665755   -0.331514    1.302962
H       1.395163    1.719588   -0.431996
H      -0.148743    1.833128   -1.303021
H      -0.061715    2.304961    0.405017
H      -1.125768    0.081122    0.174487
H       0.744660   -2.756117   -0.549335
H       2.177983   -1.799632   -0.957048
H       3.300224   -2.148217    1.643539
H       2.214719   -1.775333    2.973005
H       1.282024   -5.811385    2.126050
H       0.570392    0.157632    2.264959
