21

C      -0.007867    1.466448    0.038346
C       0.036664   -0.036545    0.010360
C       0.596974   -0.963028   -1.109914
C       0.063733   -1.935324   -0.015558
C       0.062014   -3.439183   -0.028612
C       0.730268   -0.990334    1.029829
C      -1.205503   -1.004608    0.054331
C      -2.056632   -1.032769    1.224826
C      -2.781977   -1.056254    2.185320
H       1.002828    1.888725    0.020081
H      -0.553581    1.862409   -0.825166
H      -0.507136    1.822620    0.945692
H       0.067400   -0.957517   -2.068335
H       1.681169   -0.945611   -1.252212
H       1.084346   -3.831897   -0.056277
H      -0.428069   -3.834027    0.867672
H      -0.471090   -3.826794   -0.903713
H       1.824389   -0.974849    1.036200
H       0.322143   -1.009946    2.042494
H      -1.807169   -1.000656   -0.861867
H      -3.421022   -1.076943    3.032948
