18

C       0.015204   -1.217098   -0.072223
C      -0.012488   -0.015799   -0.035850
C      -0.011609    1.440707    0.008882
C       1.409848    2.035556    0.005874
C       1.402610    3.565971    0.057224
C       2.821572    4.198820    0.029565
O       2.795570    5.085428   -1.116601
C       1.568584    4.924454   -1.663026
N       0.728683    4.143583   -1.126426
H       0.023298   -2.278096   -0.106793
H      -0.564358    1.846135   -0.845542
H      -0.546885    1.779623    0.906071
H       1.970824    1.647997    0.864548
H       1.939022    1.707854   -0.896279
H       0.850444    3.884916    0.950592
H       3.057384    4.794153    0.914651
H       3.615906    3.462294   -0.128829
H       1.400430    5.510957   -2.559768
