18

C       0.057536    1.503296   -0.127433
C      -0.043956    0.011681   -0.039951
O       0.450272   -0.724622   -1.168895
C      -0.252946   -1.853124   -0.568214
C       0.654183   -2.148832    0.641712
C       0.360997   -0.787921    1.305796
C      -1.155404   -0.915594    1.607909
C      -1.310232   -0.876388    0.079926
H       1.108457    1.810298   -0.164986
H      -0.440208    1.875763   -1.027688
H      -0.401341    1.975401    0.746743
H      -0.508499   -2.639813   -1.276393
H       0.342105   -2.996658    1.258361
H       1.687200   -2.286478    0.316868
H       1.066563   -0.391096    2.034205
H      -1.487385   -1.799164    2.160772
H      -1.579776   -0.017617    2.066039
H      -2.238402   -0.685225   -0.456788
