18

O       0.288719    1.181074   -0.546666
C       0.118505   -0.130613   -0.051261
C       0.225599   -0.312221    1.490025
C      -1.308530   -0.624158    1.554097
C      -1.404536   -0.502164    0.014064
N      -2.377867    0.551019   -0.264513
C      -2.502923    1.428356    0.898848
C      -2.121694    0.546653    2.090009
O      -2.393424    0.757674    3.243067
H       1.224035    1.404292   -0.505703
H       0.722908   -0.849156   -0.620604
H       0.853612   -1.148046    1.805508
H       0.535832    0.585310    2.032189
H      -1.587402   -1.559037    2.039149
H      -1.649353   -1.409532   -0.544492
H      -2.120853    1.066849   -1.097589
H      -1.815330    2.290478    0.890547
H      -3.521059    1.811488    1.021064
