15

C      -0.012361    1.500867    0.013912
C       0.005489   -0.000423    0.012839
N       0.114560   -0.607890   -1.179547
C       0.130587   -1.933804   -1.181824
C       0.039519   -2.698610   -0.008460
C      -0.070355   -1.956564    1.174367
N      -0.087849   -0.627305    1.193343
C       0.057512   -4.117432   -0.021005
C       0.072871   -5.321389   -0.032669
H       0.904897    1.889524   -0.440002
H      -0.845514    1.868897   -0.593375
H      -0.105824    1.879469    1.031616
H       0.218880   -2.427206   -2.146918
H      -0.146112   -2.465223    2.132395
H       0.086383   -6.383310   -0.042563
