20

C      -0.173529    1.473794   -0.034055
C       0.068572   -0.004060    0.168920
C       1.415666   -0.634289   -0.088267
C       2.542103    0.171024   -0.471109
C       3.506602    0.815239   -0.791586
N       0.852635   -0.554681    1.271204
C       1.471466    0.310547    2.277723
C       0.637767    0.203323    3.555518
O       0.521991   -1.136619    3.982878
H       0.747632    2.057695    0.002662
H      -0.626629    1.633098   -1.017622
H      -0.867845    1.863144    0.718319
H      -0.791295   -0.626624   -0.075819
H       1.439117   -1.646341   -0.488509
H       4.357743    1.382644   -1.077184
H       2.477610   -0.076725    2.468675
H       1.570629    1.359684    1.971000
H       1.120044    0.767338    4.361453
H      -0.353495    0.657919    3.383145
H       0.355889   -1.640542    3.174436
