21

C      -0.026492    1.588071   -0.038343
C       0.105113    0.067020    0.005529
C       0.752693   -0.531172   -1.261232
C       0.979177   -2.031501   -1.098525
O       1.787070   -2.305313    0.032294
C       1.181197   -1.922550    1.264976
C       2.117180   -2.311217    2.394511
C       0.853140   -0.417151    1.248306
O       1.150087    0.314461    2.163539
H       0.957030    2.060137   -0.124852
H      -0.631305    1.896199   -0.896701
H      -0.491176    1.968086    0.873813
H      -0.899209   -0.380456    0.092553
H       0.121263   -0.333062   -2.135511
H       1.719139   -0.044362   -1.440524
H       0.011935   -2.557489   -1.012095
H       1.510790   -2.447449   -1.959257
H       0.217124   -2.457412    1.372746
H       3.070966   -1.787905    2.292474
H       1.681533   -2.038097    3.357368
H       2.299914   -3.388100    2.370856
