20

C      -0.055690    1.602167   -0.012559
C       0.007530    0.072794    0.016195
C       0.698154   -0.511444   -1.219368
C       0.768943   -2.055651   -1.221904
C       1.362695   -2.557495   -2.568404
C       1.321607   -4.010280   -2.713987
N       1.272554   -5.158200   -2.834592
C       1.541978   -2.570663   -0.094448
C       2.204384   -2.983645    0.819272
H       0.948099    2.039382   -0.051502
H      -0.607743    1.962786   -0.887720
H      -0.554229    1.993528    0.879194
H       0.537786   -0.261190    0.914850
H      -1.008716   -0.336532    0.088447
H       0.161615   -0.193991   -2.123131
H       1.716710   -0.110568   -1.299728
H      -0.254979   -2.445555   -1.148212
H       0.802647   -2.110306   -3.397088
H       2.401076   -2.221372   -2.658680
H       2.776428   -3.364566    1.629134
