15

C      -0.019027    1.414741   -0.112036
N       0.092786   -0.023302    0.028459
C       0.616870   -0.595788    1.127881
O       1.053961   -0.051491    2.117125
N       0.624174   -2.029592    1.041163
C       1.081754   -2.901473    1.973664
N       0.929229   -4.138672    1.553918
C       0.358126   -3.970970    0.323678
N       0.152016   -2.719294   -0.035090
H       0.551958    1.770282   -0.976001
H      -1.064463    1.717375   -0.231798
H       0.382640    1.871719    0.792834
H      -0.222352   -0.646147   -0.701262
H       1.501050   -2.568763    2.909195
H       0.090167   -4.796385   -0.319134
