17

N       0.051221    1.463340   -0.241328
C      -0.003241    0.042683   -0.048262
C      -0.034608   -0.657449    1.350312
O       1.007740   -0.588149    2.244192
C      -1.505882   -0.150115    1.527353
C      -1.398999   -0.678619    0.060969
C      -0.626703   -1.908808    0.629239
C      -2.444489   -0.701828   -0.921238
N      -3.284355   -0.718737   -1.716400
H      -0.340060    1.983536    0.535549
H       1.012638    1.764628   -0.350435
H       0.666270   -0.435250   -0.768708
H       0.776472   -1.076545    3.041957
H      -2.148821   -0.733303    2.191291
H      -1.677115    0.918897    1.661582
H       0.024419   -2.437762   -0.070032
H      -1.223333   -2.591630    1.237395
