19

O       0.043946    0.001963   -0.358286
C      -0.003716    1.154187   -0.039578
C      -1.143930    2.113552    0.332282
C      -0.065373    3.138730    0.802102
C      -0.092149    4.655392    0.431516
C       0.030479    5.006872    1.919010
C      -1.109732    4.399658    2.684879
C       0.042995    3.521096    2.282627
C       1.061431    2.231824    0.220409
H      -1.711729    2.434541   -0.548551
H      -1.849379    1.747538    1.084158
H       0.783150    4.943522   -0.156509
H      -0.991710    5.022914   -0.075398
H       0.630669    5.810817    2.326243
H      -1.152130    4.651101    3.739841
H      -2.085252    4.279337    2.217538
H       0.648183    2.997155    3.014216
H       1.875119    1.945760    0.893745
H       1.500285    2.607354   -0.711100
