16

O      -0.007942    1.441020    0.039449
C       0.020622    0.050814    0.040280
C      -0.395148   -0.734105   -1.186292
C      -1.262431   -0.750694    0.054208
C      -1.072065   -1.916822    1.035751
C       0.372354   -1.750564    1.506647
C       0.941804   -0.671456    0.972246
C      -2.024605   -1.890157    2.151076
N      -2.775862   -1.872707    3.029063
H       0.643862    1.758567   -0.594459
H      -0.791609   -0.159975   -2.017809
H       0.171624   -1.618145   -1.460814
H      -2.219604   -0.248125    0.014410
H      -1.203596   -2.880122    0.524735
H       0.837964   -2.468041    2.170097
H       1.959517   -0.342912    1.149305
