15

N       0.092634    1.347140   -0.077146
C       0.005459    0.089761   -0.151870
O       1.049032   -0.776834   -0.236357
C       0.587784   -2.143072   -0.192051
C      -0.901775   -2.097774   -0.564064
C      -1.303873   -0.687479   -0.127647
C      -1.886622   -0.615096    1.283284
O      -2.103117   -1.575097    1.974917
H       1.069629    1.644844   -0.076243
H       1.200481   -2.720684   -0.886856
H       0.741114   -2.527947    0.821985
H      -1.036359   -2.219289   -1.641433
H      -1.476390   -2.864318   -0.042176
H      -2.017667   -0.190698   -0.791778
H      -2.087987    0.419422    1.628648
