19

C      -0.520853    1.441531    0.004852
C      -0.307512   -0.065481   -0.014478
O      -0.465330   -0.729954    0.985141
N       0.089627   -0.661068   -1.222815
C       0.047396    0.021835   -2.436615
N       0.181019   -0.571108   -3.553483
C       0.321459   -2.090477   -1.243361
C       1.626086   -2.607806   -1.782111
C       1.334126   -2.686904   -0.308691
H       0.350762    1.991200   -0.361991
H      -1.384875    1.735617   -0.599296
H      -0.710597    1.717773    1.041506
H      -0.111890    1.094194   -2.320567
H       0.126043    0.107718   -4.310904
H      -0.570761   -2.670162   -1.457537
H       1.590771   -3.506882   -2.385897
H       2.348061   -1.873967   -2.118067
H       1.861825   -2.012366    0.353616
H       1.089539   -3.644098    0.136992
