17

O       0.137069    1.198729    0.573663
C       0.042379    0.018442   -0.222366
C      -1.305882   -0.615910   -0.151522
N      -2.136347   -0.819343   -1.166029
C      -3.290732   -1.391334   -0.668835
C      -3.145251   -1.531005    0.689468
C      -3.469576   -1.845680    2.145877
C      -2.036677   -1.265754    2.452826
N      -1.907275   -1.049453    0.993654
H      -0.512762    1.822238    0.231544
H       0.266890    0.205888   -1.279674
H       0.815143   -0.650554    0.172525
H      -4.113487   -1.647783   -1.316695
H      -4.291932   -1.277118    2.585978
H      -3.594194   -2.902694    2.391946
H      -2.011354   -0.339457    3.030132
H      -1.311315   -1.976393    2.855142
