23

C      -0.038754    1.504854   -0.026070
C       0.014412   -0.013513    0.061508
O       0.760294   -0.623572   -1.032836
C       1.571943   -1.596504   -0.342035
C       0.604676   -2.174066    0.711952
C       0.717935   -0.704320    1.244744
C       2.241799   -0.755054    0.791987
C       3.142038   -1.514807    1.777119
C       2.996617    0.498392    0.342033
H       0.913917    1.992616    0.175349
H      -0.370894    1.799196   -1.026760
H      -0.774196    1.881657    0.693117
H      -1.023835   -0.371864    0.000837
H       2.126592   -2.189338   -1.069931
H      -0.373194   -2.494940    0.346335
H       1.030432   -2.936815    1.357820
H       0.417746   -0.416304    2.253129
H       2.670159   -2.370272    2.261623
H       4.045444   -1.873576    1.270428
H       3.470026   -0.834453    2.571485
H       2.998117    1.270366    1.119951
H       4.044378    0.243052    0.145074
H       2.581689    0.919622   -0.572461
