17

O      -0.066322    0.284175    0.814820
C      -0.051822    1.261722    0.123412
O      -1.205865    1.729995   -0.415908
C      -1.208428    2.949382   -1.179711
C      -0.335697    4.015177   -0.525842
C       1.110849    3.527262   -0.545929
C       1.991011    3.721665    0.706494
O       2.009306    2.300170    0.973315
C       1.232269    2.022776   -0.206244
H      -0.871365    2.738828   -2.203818
H      -2.257560    3.249102   -1.226487
H      -0.451583    4.968563   -1.050857
H      -0.684165    4.163042    0.503193
H       1.598649    3.799597   -1.484123
H       2.998461    4.111819    0.520939
H       1.532657    4.285796    1.528110
H       1.796325    1.418174   -0.929515
