17

C       0.094328   -1.179941   -0.052221
C       0.014242    0.021532   -0.011772
C      -0.033724    1.434565    0.050205
C      -1.127836    2.212713    0.056552
C      -0.804411    3.682359    0.100827
C       0.733647    3.723110    0.289888
C       1.206743    2.282357    0.079792
C       2.535459    1.781752    0.445271
O       2.198611    2.022024   -0.924296
H       0.152453   -2.239084   -0.099823
H      -2.143242    1.836508    0.014960
H      -1.126988    4.176867   -0.824979
H      -1.334750    4.191133    0.914073
H       1.236030    4.387645   -0.416265
H       0.986515    4.059654    1.299533
H       3.262196    2.470116    0.877186
H       2.661961    0.734736    0.716569
