19

C      -0.112784    1.597412    0.229188
C       0.043589    0.088811    0.185543
N       1.182079   -0.525394   -0.674743
C       2.115650   -0.153860    0.486419
C       0.865779   -0.719845    1.206546
O       0.563031   -0.804032    2.557374
C       0.933744   -1.833041    0.116092
C      -0.220897   -2.736760   -0.272439
H      -0.363423    1.971923   -0.768851
H      -0.941319    1.852041    0.898276
H       0.769590    2.135250    0.580061
H      -0.919626   -0.346502   -0.084078
H       3.032449   -0.750003    0.506859
H       2.340605    0.908578    0.558848
H       1.240699   -1.331627    2.994517
H       1.856698   -2.424027    0.139961
H      -0.081983   -3.098965   -1.296435
H      -0.232118   -3.609099    0.389610
H      -1.204420   -2.267444   -0.211059
