18

O      -0.097400    1.288853    0.237700
N       0.011501   -0.109390    0.210597
C      -1.115592   -0.657734   -0.010297
C      -2.473254   -0.015448   -0.201761
C      -3.399515   -1.197864   -0.547810
C      -2.721669   -2.421281    0.113009
O      -3.150548   -3.673223   -0.357131
C      -1.217487   -2.162465   -0.118094
O      -0.958889   -2.599805   -1.456790
H       0.807082    1.563339    0.423889
H      -2.765988    0.481648    0.731586
H      -2.444542    0.767459   -0.964619
H      -4.427364   -1.060507   -0.206342
H      -3.423341   -1.359897   -1.629971
H      -2.913479   -2.405418    1.192899
H      -2.692159   -3.813817   -1.195678
H      -0.566973   -2.685687    0.591046
H      -0.067344   -2.321645   -1.689536
