21

C       0.042773    1.508808    0.170154
C       0.038262   -0.012255    0.034123
O       0.727604   -0.646260    1.106272
C      -1.367413   -0.567663   -0.105126
C      -2.229679   -0.942960    1.076922
C      -1.753292   -2.001984    0.089828
C      -2.670503   -2.343055   -1.072235
C      -3.060497   -0.952492   -1.622835
O      -2.017762   -0.052075   -1.245005
H       1.068718    1.883300    0.226266
H      -0.461778    1.969490   -0.682458
H      -0.492210    1.813993    1.078580
H       0.590526   -0.292638   -0.871445
H       0.479096   -0.194395    1.919580
H      -1.761651   -0.962173    2.054931
H      -3.273593   -0.647000    1.085528
H      -1.026646   -2.728317    0.431684
H      -2.113350   -2.919027   -1.818675
H      -3.553021   -2.925978   -0.790903
H      -3.153033   -0.922455   -2.712141
H      -4.016001   -0.618029   -1.195794
