23

C       0.135492    1.513537   -0.024214
C      -0.039915   -0.011897   -0.045824
C      -1.519959   -0.411022    0.050055
C      -2.160958   -0.166895    1.411673
C      -3.674106   -0.291454    1.469150
O      -1.507917    0.095877    2.396512
C       0.603772   -0.623629   -1.277241
C       2.081564   -0.915055   -1.298949
C       1.087515   -2.051928   -1.261338
H       1.195122    1.782036   -0.071662
H      -0.362369    1.977880   -0.884636
H      -0.283913    1.943383    0.888764
H       0.459828   -0.421129    0.840936
H      -2.118525    0.092720   -0.721920
H      -1.633681   -1.485486   -0.157199
H      -4.011855   -1.214856    0.986676
H      -4.011693   -0.263974    2.505911
H      -4.131631    0.539270    0.918647
H       0.178320   -0.280774   -2.219014
H       2.634363   -0.742471   -2.215770
H       2.647230   -0.712707   -0.395011
H       0.995210   -2.607338   -0.332989
H       0.960522   -2.656325   -2.152852
