23

C       0.078131    1.439744    0.277386
C      -0.041614   -0.068085    0.000856
C      -1.506519   -0.500000    0.086858
C       0.622752   -0.484532   -1.340374
C       2.018271   -0.994160   -0.964969
C       3.162452    0.044311   -0.756566
C       3.110545   -0.200703    0.780480
C       1.943009   -1.212932    0.575820
O       0.663652   -0.810791    1.016497
H       1.108895    1.791427    0.189567
H      -0.533223    2.011740   -0.428906
H      -0.270507    1.660461    1.290573
H      -2.105937    0.000347   -0.680574
H      -1.591464   -1.581278   -0.052687
H      -1.924224   -0.247435    1.066086
H       0.043559   -1.291687   -1.799790
H       0.651873    0.344440   -2.053927
H       2.310096   -1.860890   -1.560473
H       4.108112   -0.237134   -1.225575
H       2.920594    1.060587   -1.079510
H       4.017139   -0.651376    1.192664
H       2.841252    0.658765    1.397625
H       2.127793   -2.217704    0.966874
