15

C       0.046698    1.510343   -0.047835
C       1.552622    1.896280    0.045285
N       2.105179    0.699965    0.650297
N       3.321921    0.402662    1.150571
C       3.161588   -0.883708    1.452219
N       1.936054   -1.418163    1.166985
C       1.302916   -0.376892    0.656796
C      -0.019660   -0.048619    0.040665
H      -0.487856    1.945304    0.800348
H      -0.412517    1.896508   -0.959105
H       2.006925    2.072216   -0.936257
H       1.732328    2.774875    0.668887
H       3.959421   -1.457346    1.900657
H      -0.866638   -0.396459    0.636124
H      -0.108993   -0.510358   -0.949272
