21

C      -0.203542    1.343340    0.762951
C      -0.137873   -0.140191    0.392623
C       0.921406   -0.885589    1.211568
N       1.009350   -2.310877    0.889576
C       1.996603   -2.784227    0.046449
O       2.134658   -3.935510   -0.295803
C       0.093139   -3.207645    1.437207
N      -0.829135   -2.824062    2.215684
C      -1.714928   -3.841393    2.745157
H       0.755305    1.844254    0.587068
H      -0.962141    1.862432    0.170337
H      -0.458944    1.476251    1.819811
H      -1.107840   -0.615150    0.566699
H       0.089431   -0.253034   -0.674678
H       1.910993   -0.448134    1.040250
H       0.695699   -0.802485    2.277858
H       2.667596   -1.970281   -0.286350
H       0.278315   -4.237683    1.121013
H      -1.675364   -3.827114    3.840493
H      -2.748688   -3.610658    2.462908
H      -1.478289   -4.860244    2.401312
