18

C      -0.027607    1.538369   -0.073069
C       1.423631    1.963331    0.116040
C       2.218637    0.895435    0.254538
C       3.621513    0.521399    0.222007
C       3.730800   -0.804631    0.014010
C       2.382848   -1.503320   -0.108338
C       1.429965   -0.376665    0.266430
N       0.459028   -0.433693    1.390880
C       0.014917    0.009526    0.042021
H      -0.700867    1.968439    0.678708
H      -0.402611    1.857362   -1.055572
H       1.732633    3.001496    0.086631
H       4.452597    1.211895    0.297788
H       4.666056   -1.339976   -0.103959
H       2.229466   -1.879992   -1.129164
H       2.299112   -2.367427    0.561990
H       0.173709   -1.408115    1.499723
H      -0.700253   -0.601622   -0.498025
