24

C      -0.758116    1.472031   -0.877948
C      -0.487057    0.044537   -0.393840
C      -1.769468   -0.784164   -0.253062
C      -1.544376   -2.265933    0.102370
C      -0.792892   -2.497898    1.431028
C      -1.451238   -1.912729    2.686523
C      -2.908502   -3.003098    0.062824
C      -2.794716   -4.446429    0.260512
N      -2.686392   -5.586846    0.415322
H       0.170029    2.044565   -0.967800
H      -1.246422    1.472294   -1.858775
H      -1.413902    2.008679   -0.183209
H       0.192630   -0.457681   -1.095074
H       0.040816    0.083465    0.566180
H      -2.424629   -0.317815    0.495121
H      -2.321701   -0.736623   -1.201797
H      -0.926948   -2.706526   -0.691624
H      -0.661326   -3.577700    1.565077
H       0.217113   -2.085992    1.330795
H      -2.448655   -2.329104    2.862358
H      -0.848950   -2.142067    3.570527
H      -1.549294   -0.823867    2.631575
H      -3.585034   -2.601163    0.825713
H      -3.394197   -2.828908   -0.903989
