14

N       0.047991   -1.166916    0.120867
C       0.027343   -0.010680    0.097438
C       0.021962    1.429583    0.072437
C       0.531707    2.243603    1.205853
C       1.659380    1.514176    1.953851
C       2.382277    1.472701    0.564838
N       1.265043    2.226302   -0.108304
C       2.331576    2.310272    2.965813
N       2.866319    2.947823    3.767795
H      -0.805126    1.858523   -0.485225
H      -0.002874    3.113953    1.569953
H       1.377673    0.546857    2.379333
H       3.287054    2.078045    0.536713
H       2.576052    0.481620    0.150108
