18

C      -0.023735    1.576218   -0.169285
N       0.002197    0.120442   -0.062807
C      -1.089945   -0.501424    0.740692
C      -0.196379   -1.722927    1.103628
C      -0.571055   -1.637281    2.607215
C       0.443523   -2.107039    3.603379
O       0.193283   -2.773140    4.577090
C      -0.484365   -0.152646    2.152073
C       0.690410   -0.439597    1.138590
H       0.950486    1.926026   -0.525792
H      -0.773588    1.867546   -0.911822
H      -0.252705    2.100011    0.773720
H      -2.139164   -0.503426    0.441108
H      -0.029609   -2.602775    0.483978
H      -1.566164   -2.000074    2.879187
H       1.490535   -1.788744    3.385529
H      -0.653236    0.731383    2.765585
H       1.766450   -0.355965    1.293566
