23

C      -1.372693    2.505300   -0.442469
C      -1.209951    1.294087   -1.359082
N      -1.850687    0.124393   -0.763669
C      -1.536081   -1.230331   -1.219532
C      -0.553970   -1.536469   -2.331118
C      -1.114588   -0.762713    0.142135
C       0.319851   -0.565914    0.525442
C       0.647575   -0.154854    1.916218
N       0.939816   -1.524212    1.460827
H      -0.955840    3.402818   -0.910092
H      -2.430039    2.681070   -0.225810
H      -0.854332    2.346428    0.508377
H      -1.716050    1.482218   -2.313658
H      -0.144174    1.154785   -1.593871
H      -2.421982   -1.865642   -1.260539
H       0.372503   -0.963897   -2.265272
H      -0.287210   -2.598246   -2.306672
H      -1.004546   -1.332578   -3.308746
H      -1.715263   -1.091127    0.994757
H       0.999183   -0.254198   -0.260946
H       1.522282    0.458106    2.114444
H      -0.181236    0.002020    2.602535
H       0.227670   -2.160999    1.813602
