17

O      -0.113748    1.295203   -0.722592
C       0.076529    0.183339    0.134594
C      -1.238030   -0.511810    0.406814
N      -1.824376   -1.205838   -0.757240
C      -1.446090   -1.986418    0.435684
C      -0.355817   -3.027481    0.261459
C      -0.900405   -4.270971   -0.414201
O      -0.797317   -5.389138    0.019729
H      -0.545065    0.948525   -1.512801
H       0.807258   -0.521110   -0.286811
H       0.495319    0.577487    1.066432
H      -1.922797    0.072547    1.019316
H      -2.829874   -1.066696   -0.793287
H      -2.261901   -2.319661    1.076403
H       0.434122   -2.627424   -0.384211
H       0.084119   -3.311104    1.222082
H      -1.425347   -4.068796   -1.374694
