15

C       0.102986    1.650673   -0.018746
C      -0.149229    0.157771   -0.223128
N      -1.565587   -0.085477   -0.464152
C      -1.911889   -1.003833   -1.235842
O      -1.111429   -1.885222   -1.937632
C      -1.960237   -2.699471   -2.663875
C      -3.214617   -2.344572   -2.413909
O      -3.221605   -1.291899   -1.523566
H       1.157434    1.836455    0.209658
H      -0.159120    2.214860   -0.918984
H      -0.506185    2.032142    0.805511
H       0.480918   -0.222441   -1.039236
H       0.149554   -0.386911    0.683554
H      -1.511243   -3.455005   -3.283378
H      -4.168341   -2.704645   -2.755562
