20

C      -0.154956    1.456075   -0.494156
C       0.094546    0.009544   -0.126895
O       1.286648   -0.561852   -0.754016
C       1.728598   -1.049463    0.511490
C       2.033106    0.092825    1.445064
C       0.601278   -0.397030    1.264669
N      -0.312269   -0.870293    2.251688
C       0.184525   -1.331260    3.543907
C      -0.535472   -0.035065    3.436868
H       0.673880    2.100458   -0.189078
H      -0.281705    1.553511   -1.577090
H      -1.071941    1.812004   -0.012340
H      -0.771450   -0.612984   -0.382476
H       2.178340   -2.034696    0.556608
H       2.505348   -0.198264    2.378337
H       2.373298    1.042488    1.041620
H      -0.315978   -2.210692    3.938795
H       1.252341   -1.291905    3.744184
H       0.061144    0.869519    3.532633
H      -1.568193    0.052888    3.760722
