21

C       0.046388    1.339255   -0.000085
O       0.045059   -0.067538   -0.021319
C       0.627215   -0.634287    1.134883
C       0.593863   -2.129220    1.016577
C      -0.649423   -3.065166    0.967937
C       0.572329   -4.022151    0.874090
C       1.182779   -3.004063   -0.136075
C       1.195310   -3.168818    2.021635
O       2.563953   -3.197006    2.313175
H       1.068336    1.747213    0.058731
H      -0.417359    1.681985   -0.928398
H      -0.527957    1.736958    0.852018
H       1.670812   -0.291909    1.250676
H       0.082267   -0.314400    2.040666
H      -1.257787   -3.125003    1.875621
H      -1.266927   -2.985823    0.071951
H       0.553031   -5.108989    0.788539
H       0.684869   -2.917983   -1.104112
H       2.269094   -3.001460   -0.277614
H       0.684498   -3.232235    2.986834
H       3.062705   -3.220595    1.490193
