16

N       0.813986    0.085217   -0.308701
C      -0.282520    0.383146    0.434443
O      -0.330901    1.269014    1.262810
C      -1.516069   -0.478052    0.130980
N      -1.170165   -1.725832   -0.548955
C      -1.067767   -2.928708    0.257434
C      -2.206307   -2.755173   -0.704817
C      -3.537609   -2.547046   -0.188307
N      -4.614197   -2.373534    0.196999
H       1.635963    0.657031   -0.209874
H       0.767432   -0.630373   -1.014449
H      -2.055826   -0.620820    1.075753
H      -2.167027    0.105877   -0.529180
H      -0.266402   -3.615698    0.003061
H      -1.305862   -2.856872    1.316452
H      -2.183373   -3.278681   -1.656423
