21

C      -0.270261    1.536549   -0.044842
C       0.071341    0.059623   -0.019714
O       1.263447   -0.243445   -0.789490
C       1.911660   -0.850618    0.340339
C       0.696531   -0.579885    1.256118
C       0.925991    0.280651    2.487570
O      -0.309950    0.721871    3.069283
C       1.750083   -0.429416    3.566362
O       1.892493    0.385180    4.707739
H       0.577958    2.147353    0.276043
H      -0.531976    1.834124   -1.064916
H      -1.117413    1.746522    0.613851
H      -0.780383   -0.520894   -0.400603
H       2.150433   -1.906682    0.165709
H       2.835249   -0.323309    0.616127
H       0.177835   -1.497798    1.556764
H       1.444624    1.207497    2.219244
H      -0.855731   -0.059134    3.223190
H       1.262072   -1.391680    3.812695
H       2.755399   -0.659860    3.196674
H       1.029406    0.801496    4.833036
