19

O       0.729961    0.431696   -1.068530
C       0.218085   -0.418062   -0.076315
C       0.265798    0.029934    1.411910
C      -1.173310   -0.559406    1.608023
C      -2.134022    0.199250    2.380548
C      -2.940287    0.843195    2.999558
C      -1.303898   -0.580231    0.064964
C      -2.310890    0.192264   -0.735226
C      -2.278358   -1.318700   -0.793235
H       0.309073    1.292059   -0.961074
H       0.719490   -1.379683   -0.227939
H       1.059604   -0.369276    2.045580
H       0.252729    1.120251    1.493769
H      -1.112698   -1.583024    1.995392
H      -3.645165    1.405840    3.559849
H      -3.123469    0.670215   -0.198335
H      -1.951401    0.734283   -1.604600
H      -1.904354   -1.786844   -1.698609
H      -3.079086   -1.862663   -0.301911
