19

O       0.188935    1.364821    0.260970
C       0.014986   -0.005646   -0.073293
C      -1.437881   -0.343689    0.027520
O      -1.864927   -1.526737   -0.675482
C      -2.538741   -0.291605   -0.951795
C      -3.586239   -0.085474    0.156600
C      -2.417248   -0.141261    1.173638
C      -2.362230   -0.743009    2.544923
C      -2.226691    0.753195    2.360534
H       1.133057    1.547418    0.277866
H       0.347217   -0.230075   -1.097528
H       0.587184   -0.657460    0.607516
H      -2.553978    0.048643   -1.980905
H      -4.067224    0.895725    0.118062
H      -4.342950   -0.871388    0.222765
H      -3.286499   -1.123572    2.967425
H      -1.480834   -1.312086    2.823326
H      -1.251387    1.207381    2.490992
H      -3.059832    1.381838    2.659129
