9

F       0.711589    0.281714    0.155603
C      -0.061371    1.341051    0.010341
F       0.695011    2.401013   -0.313466
F      -0.921158    1.127943   -0.997526
C      -0.862725    1.669823    1.291795
O      -0.770278    1.016764    2.288735
C      -1.787201    2.907495    1.172689
O      -2.458571    3.261251    2.099438
H      -1.782555    3.427749    0.194535
