16

C       0.017035    1.472412   -0.192553
O       1.382148    1.863177    0.083587
C       2.005980    0.955429    1.020237
C       1.116264   -0.261268    1.039383
O       0.139304   -0.496173    2.105402
C      -0.467936   -1.107791    0.934072
C       0.880287   -1.638701    0.330854
N       0.590911   -1.042343   -1.017691
C       0.050075   -0.022207   -0.055058
H      -0.673755    1.906610    0.543127
H      -0.228002    1.847509   -1.188440
H       3.023948    0.764905    0.668474
H       2.052522    1.397280    2.023563
H      -1.438258   -1.592511    1.032669
H       1.370409   -2.602422    0.475663
H       1.461592   -0.699192   -1.432489
