19

C      -0.562835    1.118064   -0.341999
C      -0.485927   -0.364496   -0.656686
O      -1.448111   -0.970266   -1.115988
N       0.699213   -0.970658   -0.396730
C       0.915543   -2.392971   -0.638452
C       1.172937   -2.767374   -2.124376
C       0.209906   -3.809968   -2.710405
N      -1.105542   -3.524381   -2.530509
O       0.614355   -4.797249   -3.297409
H      -0.772843    1.664266   -1.265615
H      -1.403802    1.287812    0.334952
H       0.347196    1.519325    0.110678
H       1.467459   -0.414008   -0.062555
H       1.766021   -2.695624   -0.023690
H       0.038446   -2.926692   -0.264609
H       1.100725   -1.860742   -2.734732
H       2.176938   -3.172110   -2.259436
H      -1.410715   -2.666862   -2.080710
H      -1.779732   -4.157036   -2.928147
