15

C       0.808892    0.803075    0.618957
C       0.724668    0.235830   -0.775437
C      -0.531065    0.370760    0.060642
N      -1.284396   -0.733720    0.555464
C      -0.817254   -1.808497    0.964443
O      -1.619225   -2.842674    1.433605
C      -0.762205   -3.817816    1.778484
N       0.477797   -3.570164    1.602822
O       0.482156   -2.251345    1.066063
H       1.261925    0.179419    1.379748
H       0.974817    1.866918    0.747048
H       0.831596    0.902395   -1.623941
H       1.122484   -0.759748   -0.928916
H      -1.192904    1.179649   -0.228443
H      -1.160357   -4.738058    2.176897
