17

C      -1.553219    0.072717    0.341329
C      -0.852547    0.959790   -0.064522
C      -0.010289    2.063011   -0.517691
C       1.419322    2.021430    0.032457
C       2.407465    1.107840   -0.690378
C       2.056086   -0.313722   -0.687637
N       1.811512   -1.442452   -0.706763
C       1.958049    3.263159    0.650545
N       1.620504    2.094111    1.478856
H      -2.153361   -0.735249    0.680401
H       0.022096    2.081866   -1.614874
H      -0.474602    3.009943   -0.215713
H       2.518179    1.432109   -1.732422
H       3.386379    1.210984   -0.212563
H       3.019238    3.491245    0.591950
H       1.312110    4.136842    0.677150
H       0.731421    2.219682    1.956549
