15

O       0.108305   -0.000990   -0.171701
C       0.163311    1.173857   -0.357795
O       0.877417    1.990123    0.473976
C       0.897143    3.347202    0.198238
C       0.422972    4.489446    1.157982
C       0.998803    5.252607   -0.083957
C       2.173633    4.215414   -0.060602
C       0.253389    4.202793   -0.918707
O      -0.435516    4.094117   -1.884945
H      -0.326892    1.720166   -1.178881
H      -0.645744    4.574639    1.358577
H       1.026432    4.585769    2.062229
H       1.063644    6.324138   -0.231741
H       2.831505    4.303226    0.805769
H       2.724083    4.047188   -0.987073
