19

C      -0.590809    1.292528   -0.032736
C       0.188163   -0.010556   -0.067725
N       1.577530    0.067710   -0.577436
C       2.024819   -0.963625    0.384462
C       0.773078   -0.634999    1.252637
C       1.095518    0.375582    2.372508
O       1.914012   -0.192739    3.372429
C       0.048787   -1.765334    1.812390
N      -0.522406   -2.647979    2.295683
H      -0.030433    2.084771    0.469102
H      -0.796540    1.626675   -1.055238
H      -1.553059    1.158986    0.472678
H      -0.409805   -0.781019   -0.577563
H       1.695062   -0.168660   -1.556594
H       2.002038   -1.992381    0.003236
H       2.989891   -0.771907    0.861124
H       1.666102    1.199679    1.937967
H       0.162478    0.781806    2.788017
H       1.403268   -0.869621    3.831448
