21

O      -0.730772    0.333976   -0.010463
C      -0.273819    1.447731   -0.006707
C       1.202484    1.791439    0.001248
C       1.540207    2.596144   -1.277375
C       3.052907    2.785369   -1.485183
C       3.657342    3.971390   -0.713794
O       3.071025    4.230416    0.548214
C       2.931711    3.118845    1.413930
C       1.523962    2.520839    1.321960
H      -0.944358    2.341508   -0.008198
H       1.745256    0.839263   -0.032557
H       1.134040    2.049771   -2.136467
H       1.034810    3.569394   -1.254837
H       3.564987    1.853982   -1.216333
H       3.265544    2.944496   -2.548721
H       4.744804    3.823227   -0.611023
H       3.507284    4.897531   -1.278666
H       3.703012    2.358608    1.221768
H       3.091897    3.491757    2.432209
H       0.815609    3.346933    1.467243
H       1.376599    1.825122    2.157615
