16

C      -0.049460    1.469160    0.001841
N      -0.002648    0.021299    0.003494
C       0.073502   -0.757006   -1.151523
C       0.102929   -2.070833   -0.757713
O       0.173572   -3.162093   -1.537080
C       0.043150   -2.095071    0.679445
C       0.052894   -3.308713    1.440989
O       0.113707   -4.421350    0.921927
C      -0.021083   -0.766855    1.098062
H       0.854020    1.885131   -0.455361
H      -0.920719    1.826236   -0.556250
H      -0.119982    1.826775    1.030244
H       0.098751   -0.303910   -2.127661
H       0.173961   -3.921606   -0.920038
H       0.002757   -3.213851    2.544945
H      -0.077434   -0.346037    2.090023
