18

O      -0.133419   -0.070221   -0.073148
C      -0.064148    1.131495   -0.067830
C       1.218264    1.927425    0.025173
C       1.377291    2.882198   -1.163435
C       2.615192    3.745646   -1.327992
C       3.637590    2.993595   -2.120501
C       3.083575    1.628123   -2.480696
C       1.742109    2.378101   -2.582230
N       2.521482    3.714201   -2.829024
H      -0.984900    1.757699   -0.146154
H       1.168471    2.529391    0.944342
H       2.058478    1.235991    0.119676
H       0.494685    3.527527   -1.245558
H       2.858377    4.662146   -0.801263
H       4.661581    3.341686   -2.196896
H       3.428644    1.325733   -3.472487
H       3.181598    0.788114   -1.786747
H       0.970632    2.069118   -3.284582
