16

C      -0.044288    1.467620   -0.005318
C       1.430434    1.874560   -0.024267
O       2.162758    1.473170    1.127690
C       2.258047    0.653227   -0.072742
C       1.322172   -0.483091   -0.069622
C       1.254074   -1.857790   -0.060120
C      -0.127271   -2.194263    0.028193
C      -0.853449   -1.018971    0.075874
N       0.039282    0.011985    0.004374
H      -0.558415    1.847766    0.883619
H      -0.565572    1.834671   -0.897405
H       1.715456    2.822460   -0.472256
H       3.241874    0.607311   -0.525111
H       2.086575   -2.542982   -0.095958
H      -0.544956   -3.189322    0.052850
H      -1.915861   -0.845390    0.138162
