18

C      -0.037696    1.447167    0.034964
C       0.001739   -0.068792    0.029989
O      -1.353359   -0.537573    0.000027
C      -1.519378   -1.865185   -0.008300
N      -0.525222   -2.751619    0.008517
N      -1.168569   -3.926201   -0.009753
C      -0.457544   -5.184313    0.004337
N      -2.490372   -3.856204   -0.035802
C      -2.748907   -2.548127   -0.036447
H       0.980764    1.845909    0.057623
H      -0.537908    1.825574   -0.860888
H      -0.574703    1.818799    0.912157
H       0.537820   -0.458350   -0.843824
H       0.501114   -0.465098    0.922322
H       0.141257   -5.272520    0.915133
H      -1.203067   -5.977467   -0.028743
H       0.203099   -5.255584   -0.863956
H      -3.754608   -2.163869   -0.056160
