20

C      -0.252059    1.310578   -0.484116
O      -0.059915   -0.054373   -0.193125
C       0.712218   -0.724070   -1.164376
C       0.806939   -2.197253   -0.772889
C      -0.571270   -2.879920   -0.790023
O      -0.744711   -3.372500   -2.130844
C       0.464893   -3.504805   -2.753367
N       0.628903   -3.956527   -3.920782
C       1.562768   -3.021588   -1.827058
H       0.703481    1.856045   -0.529520
H      -0.774323    1.453248   -1.443001
H      -0.861956    1.733101    0.317807
H       0.252222   -0.621656   -2.162890
H       1.722872   -0.286592   -1.226498
H       1.260208   -2.261979    0.219273
H      -0.615794   -3.724804   -0.092183
H      -1.387995   -2.191011   -0.569272
H      -0.268318   -4.229958   -4.325885
H       2.323482   -2.467058   -2.379654
H       2.054586   -3.888492   -1.373221
