20

C      -0.103937    1.632711   -0.880092
C      -0.027990    0.127483   -0.744312
C       0.632689   -0.854728   -1.625094
C       2.008098   -0.440512   -2.136014
C       2.174188    0.657987   -3.149722
O       1.281641    1.217977   -3.736171
C       2.414490   -0.247568   -0.625647
C       2.995304    1.045566   -0.073359
N       1.054072   -0.695519   -0.156505
H       0.687031    2.071684   -1.483072
H      -1.049385    1.887218   -1.370216
H      -0.103827    2.105120    0.108215
H      -0.962333   -0.271410   -0.348378
H       0.122501   -1.750010   -1.966854
H       2.567229   -1.295987   -2.534548
H       3.239503    0.926391   -3.345357
H       3.092331   -1.059251   -0.347828
H       2.475040    1.943023   -0.408650
H       2.947978    1.018271    1.020494
H       4.048948    1.138094   -0.358075
