13

N      -0.071930    1.257150   -0.408968
C      -0.009598    0.043540   -0.037721
N       1.161340   -0.684260    0.177032
C       1.273891   -2.006683    0.581552
O       2.357729   -2.530156    0.734855
C      -0.006627   -2.716000    0.807014
C      -1.194149   -2.125636    0.634001
C      -1.314020   -0.716381    0.203628
O      -2.387249   -0.184075    0.048197
H       0.856491    1.665903   -0.540457
H       2.048341   -0.218629    0.028902
H       0.099405   -3.747771    1.122193
H      -2.132861   -2.644063    0.798782
