15

C      -0.057873    1.401098   -0.037701
N      -0.088416   -0.053424    0.040500
C       0.622993   -0.641040    1.068267
C       1.295414   -0.117791    2.162511
N       1.784336   -1.121486    2.949928
C       1.432505   -2.245557    2.362254
N       0.716168   -1.999937    1.204224
C       1.723409   -3.562394    2.788728
N       1.935174   -4.658811    3.099495
H       0.955471    1.811009   -0.160290
H      -0.672562    1.721197   -0.881071
H      -0.489512    1.820750    0.875555
H       0.043464   -0.501394   -0.856573
H       1.447364    0.919640    2.412278
H       0.284549   -2.693219    0.614935
