25

C       0.302750    1.776697   -0.022042
C       0.000367    0.267412   -0.091895
C       0.674669   -0.434837   -1.242485
C       1.876124   -1.015810   -1.200583
C       2.266994   -1.661230   -2.505568
C       1.214394   -1.095143   -3.486686
C       0.011137   -0.636166   -2.611831
C      -1.047808   -1.756239   -2.503234
C      -0.650333    0.628228   -3.181249
H       1.379091    1.948868    0.074486
H      -0.038161    2.299286   -0.919745
H      -0.194234    2.231991    0.840949
H       0.320633   -0.195423    0.848697
H      -1.086003    0.123787   -0.149097
H       2.501543   -1.066372   -0.313862
H       3.292724   -1.426161   -2.812724
H       2.217343   -2.757336   -2.431608
H       1.634150   -0.223473   -4.000432
H       0.915978   -1.811319   -4.258394
H      -0.595027   -2.696714   -2.173882
H      -1.834693   -1.496642   -1.786530
H      -1.528791   -1.929583   -3.472709
H      -1.044569    0.433840   -4.185450
H      -1.489827    0.961589   -2.561314
H       0.065095    1.453161   -3.257551
