19

O       0.107409    1.292931   -0.340726
C       0.040915   -0.130753   -0.085010
C       0.849035   -0.506903    1.124537
C       0.295525   -0.679361    2.329412
C      -1.156759   -0.557012    2.589239
C      -1.857940    0.762844    2.272500
C      -2.064848   -0.429627    1.385430
C      -1.443961   -0.561760    0.003515
O      -2.196759    0.117029   -0.984408
H       0.403385    1.718400    0.469457
H       0.460957   -0.593434   -0.984972
H       1.924802   -0.585907    0.996651
H       0.928795   -0.917870    3.180636
H      -1.526222   -1.097173    3.454624
H      -2.677715    1.061474    2.917036
H      -1.245386    1.584666    1.922592
H      -3.038382   -0.904622    1.458181
H      -1.480689   -1.625939   -0.263035
H      -1.850450    1.020184   -0.986852
