18

O       0.059575    1.443146   -0.008362
C       0.077098    0.038569    0.097708
C      -1.340597   -0.526666   -0.023132
O      -1.943889   -0.068508   -1.228741
C      -1.407401   -2.067841    0.105231
C      -2.867683   -2.569341    0.258840
O      -2.951602   -3.969646    0.371810
C      -0.802895   -2.699775   -1.070028
N      -0.381192   -3.176646   -2.036110
H      -0.526802    1.646486   -0.748287
H       0.719070   -0.423073   -0.673370
H       0.504291   -0.211015    1.075256
H      -1.952281   -0.096433    0.777621
H      -1.483894   -0.484380   -1.970854
H      -0.844077   -2.383653    0.991337
H      -3.267369   -2.156585    1.189923
H      -3.465696   -2.173829   -0.571851
H      -2.759519   -4.357243   -0.489274
