18

O      -0.075312    1.447136    0.035965
C      -0.002496    0.028152    0.008276
C       0.698651   -0.592527    1.238870
C       0.033716   -1.973670    1.442621
O      -0.005623   -2.405038    2.796119
C      -1.374018   -1.803053    0.901181
C      -2.131575   -0.575269    1.334408
C      -1.396270   -0.572884    0.019739
H       0.819325    1.792545   -0.045503
H       0.506566   -0.300465   -0.912106
H       1.784814   -0.658560    1.119292
H       0.498376    0.031667    2.115071
H       0.550464   -2.727258    0.826735
H       0.898282   -2.571706    3.081596
H      -1.931170   -2.696079    0.642852
H      -3.213205   -0.629084    1.286606
H      -1.756136    0.021146    2.157307
H      -1.970104   -0.543885   -0.899240
