16

N      -0.083669    1.314997    0.039086
C      -0.011630    0.057875   -0.011471
O      -1.154362   -0.666301   -0.101510
C      -1.039296   -2.085048   -0.016815
C      -0.895412   -2.643379    1.432018
O      -2.203518   -3.233348    1.382080
C      -2.452424   -2.715526    0.063559
C      -0.137987   -2.639574   -1.014474
C       0.603024   -3.113526   -1.833525
H       0.851232    1.714987    0.089215
H       0.899407   -0.551303   -0.005503
H      -0.105930   -3.387971    1.576874
H      -0.817199   -1.853112    2.188050
H      -3.243871   -1.958919    0.046091
H      -2.658924   -3.505397   -0.664543
H       1.253794   -3.529952   -2.563140
