19

C      -0.373421    1.666182   -0.097107
C       0.004825    0.199702   -0.003308
C       0.782176   -0.495244   -1.209628
C       1.098058    0.334867   -2.449095
C       1.896433   -0.713884   -0.190777
C       3.072172   -1.161282    0.359592
N       3.087917   -0.807702    1.695421
C       1.953557   -0.179102    1.954269
N       1.212558   -0.096876    0.815375
H       0.478532    2.283515   -0.391910
H      -1.174548    1.803270   -0.830461
H      -0.739098    2.029382    0.868564
H      -0.851094   -0.395079    0.331360
H       0.285227   -1.424284   -1.508605
H       1.619422    1.261949   -2.196909
H       1.746261   -0.234349   -3.122644
H       0.186016    0.587310   -3.000312
H       3.896410   -1.694938   -0.086043
H       1.657692    0.224908    2.909456
