19

C       0.087756    1.568954    0.000070
C       0.011574    0.028200    0.034342
C       0.714215   -0.484138    1.209162
C       1.285078   -0.869608    2.194011
C      -1.458288   -0.498972    0.001865
C      -2.253160    0.029747   -1.220024
O      -3.560350   -0.491519   -1.273343
C      -1.499646   -1.959953   -0.014854
C      -1.574496   -3.157434   -0.104972
H       1.125392    1.891752    0.111821
H      -0.290944    1.967301   -0.944236
H      -0.490544    2.004164    0.820945
H       0.513267   -0.362829   -0.861201
H       1.792386   -1.227730    3.055317
H      -1.965876   -0.145422    0.908531
H      -2.363450    1.114142   -1.147219
H      -1.683249   -0.193513   -2.137303
H      -3.483049   -1.453666   -1.249188
H      -1.616258   -4.218133   -0.143309
