17

N       0.309974    1.353408    0.333050
C       0.118435   -0.019426    0.102652
C      -1.090558   -0.668707   -0.036709
N      -0.829010   -2.015586   -0.184678
C       0.514223   -2.238832   -0.129152
C       1.144117   -1.020845    0.033834
C       2.624797   -0.764873    0.103695
C       2.976419   -0.235078    1.481099
O       3.148940    0.933096    1.730404
H       1.283183    1.620818    0.396433
H      -0.180301    1.951777   -0.317433
H      -2.098877   -0.289279   -0.029521
H      -1.527850   -2.724395   -0.314189
H       0.926712   -3.229767   -0.233882
H       3.172223   -1.696199   -0.079170
H       2.941864   -0.019677   -0.635692
H       3.011548   -1.003921    2.284662
