20

O      -0.277528    1.565389    0.101669
C      -0.093871    0.181968   -0.150400
C      -1.412883   -0.517574    0.154893
C      -1.361731   -2.034742    0.017422
C      -2.725361   -2.779436    0.159040
C      -2.544639   -3.303377   -1.292535
N      -1.281014   -2.561633   -1.363727
C      -0.222852   -2.835348   -2.163351
O      -0.265838   -3.561950   -3.135087
H       0.524363    2.028919   -0.156729
H       0.190681    0.001971   -1.198614
H       0.705310   -0.238414    0.483536
H      -1.701472   -0.274245    1.185159
H      -2.191898   -0.113724   -0.501784
H      -0.572458   -2.444953    0.661171
H      -2.744331   -3.553578    0.926329
H      -3.576613   -2.112248    0.302471
H      -2.407548   -4.383639   -1.398878
H      -3.292647   -2.972640   -2.019069
H       0.697859   -2.308777   -1.836043
