14

C       0.153715    1.438642    0.114003
N       0.251355   -0.008164    0.073425
C       0.496840   -0.596432   -1.010157
O       0.694184    0.083969   -2.193122
C       0.889961   -0.632318   -3.341701
C       0.938899   -1.956261   -3.358577
O       0.800766   -2.718689   -2.223702
C       0.586901   -2.112316   -1.014496
O       0.478514   -2.780453   -0.034434
H       1.128446    1.854803    0.398288
H      -0.145416    1.892966   -0.836897
H      -0.557528    1.718125    0.895301
H       1.001009   -0.008936   -4.216173
H       1.092113   -2.548312   -4.247856
