20

C       0.028220    1.545887    0.027690
C      -0.034342    0.015771   -0.007542
N      -1.399981   -0.503530   -0.040235
C      -2.020289   -0.689027   -1.336682
C      -2.027004   -0.720505    1.157878
O      -1.487031   -0.497371    2.232640
C      -3.383590   -1.244843    1.102153
C      -4.506471   -1.675940    1.190389
C      -5.859055   -2.197112    1.301445
H       1.070129    1.881513    0.027966
H      -0.468252    1.992258   -0.840133
H      -0.453293    1.918510    0.935073
H       0.487330   -0.371445   -0.889841
H       0.448756   -0.391157    0.882838
H      -1.459805   -1.418628   -1.935048
H      -3.039329   -1.052468   -1.208140
H      -2.055942    0.253864   -1.896951
H      -6.198332   -2.196054    2.342611
H      -6.563384   -1.595589    0.716592
H      -5.914383   -3.226624    0.931063
