19

C       0.115703    1.473033    0.014163
C      -0.014986   -0.068026    0.043584
C       0.577729   -0.612699    1.361128
C      -1.449370   -0.416220    0.008981
N      -2.573295   -0.685367   -0.020782
C       0.629228   -0.649821   -1.224198
C       2.098673   -0.973047   -1.324455
C       1.073066   -2.080687   -1.359883
H       1.175036    1.745244    0.023923
H      -0.339151    1.888504   -0.888925
H      -0.371197    1.926123    0.881897
H       0.043138   -0.186127    2.213557
H       0.496268   -1.699830    1.427208
H       1.630042   -0.330261    1.448144
H       0.191800   -0.221515   -2.121977
H       2.612484   -0.706466   -2.241257
H       2.715012   -0.892232   -0.436490
H       1.008941   -2.730541   -0.494769
H       0.877066   -2.582359   -2.300551
