19

C       0.099047    1.630323    0.019429
C      -0.059539    0.130214    0.109817
O       0.659590   -0.575846   -0.926685
C       1.300650   -1.430761    0.032472
C       0.727001   -0.636838    1.229383
O       1.639066    0.208575    1.898712
C      -0.171507   -1.426957    2.184935
C      -0.156755   -1.034848    3.647226
O      -0.877937   -2.310755    1.753689
H       1.147781    1.916495    0.111035
H      -0.281996    1.972068   -0.948017
H      -0.472704    2.128377    0.809276
H      -1.116870   -0.162566    0.099561
H       0.941926   -2.463547   -0.024821
H       2.394998   -1.398518   -0.047861
H       2.414538   -0.306497    2.144281
H       0.826564   -1.236361    4.086558
H      -0.323306    0.040775    3.760360
H      -0.919560   -1.602480    4.180826
