19

O       0.216719    0.682871    1.050635
C      -0.178306    0.197053   -0.233185
C      -1.491825   -0.514837   -0.048977
C      -1.671736   -1.952999    0.482464
C      -2.924930   -1.789589   -0.402372
C      -3.783114   -0.753186    0.347656
C      -2.644128    0.259887    0.656112
O      -2.463251    0.417828    2.047370
O      -2.134433   -0.922117   -1.292948
H       1.000160    1.229734    0.946304
H      -0.329706    1.022416   -0.945439
H       0.576765   -0.481319   -0.654147
H      -0.944852   -2.639466    0.046063
H      -1.793013   -2.101926    1.555801
H      -3.412432   -2.618878   -0.913771
H      -4.564379   -0.339084   -0.292097
H      -4.228835   -1.133138    1.269837
H      -2.805060    1.227015    0.158860
H      -1.574307    0.779719    2.160855
