21

C      -0.123066    1.512022    0.133042
C       0.132189    0.026377   -0.014422
C       1.468128   -0.613553   -0.286060
C       2.608928    0.075333    0.468767
C       1.838883   -0.180072    1.821623
C       0.726760   -0.875492    1.033451
C       2.625534   -1.078924    2.753584
C       3.700342   -0.393090    3.581503
O       2.421142   -2.269644    2.830861
H       0.684787    2.028087    0.658835
H      -0.228564    1.986381   -0.848810
H      -1.047766    1.695153    0.691425
H      -0.661085   -0.483737   -0.558932
H       1.615821   -1.287912   -1.121070
H       3.540034   -0.495107    0.418895
H       2.826502    1.117797    0.215284
H       1.556522    0.731728    2.361814
H       0.248088   -1.785944    1.369078
H       4.309741    0.275603    2.964538
H       3.226670    0.227952    4.351222
H       4.332200   -1.139204    4.064820
