17

C       0.148046    1.485531   -0.282313
O       1.500142    1.463454    0.236825
C       1.370029    0.118995    0.685086
C       2.550917   -0.674935    1.293738
C       1.756668   -1.957323    0.929388
C       1.620163   -1.002676   -0.282654
C       3.143924   -0.704757   -0.208701
O       0.390831   -0.865319   -1.011070
C      -0.101692    0.019499    0.054790
H      -0.472653    2.191643    0.282518
H       0.113438    1.711366   -1.351469
H       3.134012   -0.497596    2.197735
H       2.345377   -2.863016    0.776443
H       0.849460   -2.146265    1.506805
H       3.467696    0.256864   -0.603130
H       3.848212   -1.512858   -0.423533
H      -1.055798   -0.311786    0.463192
