12

N       0.033363    1.438284   -0.141604
C       0.036812    0.036495   -0.021898
C      -1.042201   -0.790539    0.042644
O      -2.359982   -0.514449    0.151899
O      -0.657501   -2.101904    0.063592
C       0.703021   -2.102287    0.013746
C       1.182458   -0.833390   -0.036699
H       0.700500    1.875700    0.483405
H      -0.886393    1.814846    0.056844
H      -2.825971   -0.821249   -0.636282
H       1.171623   -3.071881    0.018455
H       2.218680   -0.537264   -0.092497
