18

C       0.099228    1.191107    0.325260
O      -0.026174   -0.072777   -0.285508
C      -1.280329   -0.653597   -0.103962
C      -1.445736   -2.078687   -0.583905
C      -1.057876   -2.988706    0.608313
N      -0.566587   -2.083239    1.666248
C      -1.706739   -1.184544    1.303368
C      -2.435282   -2.382343    0.513556
O      -3.722245   -2.825226    0.365405
H       1.088485    1.578549    0.071048
H      -0.662966    1.898450   -0.040335
H       0.017164    1.127210    1.419953
H      -2.079689   -0.011820   -0.508073
H      -1.447837   -2.456714   -1.597496
H      -0.690773   -3.994890    0.452977
H      -0.790200   -2.514900    2.562241
H      -2.106042   -0.533417    2.078077
H      -3.990398   -3.271157    1.177115
