21

C       0.871445    1.011947    0.230970
O       0.815422   -0.357854   -0.086662
C      -0.006591   -0.629925   -1.200612
C       0.023578   -2.133565   -1.497558
O      -1.039611   -2.462007   -2.383444
C       1.349356   -2.595335   -2.082387
O       1.517742   -2.147820   -3.413712
C       2.585075   -2.648191   -1.239378
C       1.932148   -3.931937   -1.714436
H       1.285671    1.606668   -0.598362
H      -0.124134    1.414636    0.476522
H       1.520838    1.120911    1.103116
H      -1.049373   -0.336870   -1.000412
H       0.337013   -0.070463   -2.087528
H      -0.173125   -2.670580   -0.564051
H      -0.810301   -2.051777   -3.226591
H       1.211978   -2.853255   -3.993286
H       3.508452   -2.353138   -1.724028
H       2.500218   -2.367906   -0.197365
H       1.400167   -4.547788   -0.997168
H       2.439212   -4.484978   -2.498475
