23

C      -0.016202    1.544867   -0.008124
C       0.020834    0.015502    0.015613
C       0.683678   -0.545374   -1.251525
O       0.728599   -1.960843   -1.260805
C       1.474009   -2.475128   -0.169280
C       0.887995   -2.046162    1.160914
C      -0.170323   -2.917915    1.789121
C       1.217442   -2.855278    2.385596
C       0.756977   -0.535161    1.250998
H       0.995783    1.965190   -0.045781
H      -0.564915    1.918827   -0.879306
H      -0.504590    1.940625    0.888405
H      -1.008419   -0.366982    0.035739
H       0.125614   -0.251899   -2.146361
H       1.705954   -0.132570   -1.342484
H       1.466144   -3.564400   -0.274985
H       2.523116   -2.134213   -0.240378
H      -0.978506   -2.434438    2.328454
H      -0.464664   -3.824099    1.270078
H       1.861372   -3.722087    2.272333
H       1.349529   -2.327174    3.324543
H       1.759400   -0.082735    1.299549
H       0.237062   -0.243646    2.171427
