16

O      -0.069147    1.381621    0.021083
C       0.030468   -0.029449   -0.017755
C       0.746789   -0.580452    1.240491
O       0.612859   -1.983315    1.318797
C      -0.739319   -2.367149    1.328664
O      -1.416355   -1.973240    0.163036
C      -1.415688   -0.570845    0.007265
C       0.729795   -0.472974   -1.238981
N       1.310831   -0.758410   -2.196059
H       0.792044    1.763537   -0.183038
H       1.816066   -0.354951    1.221604
H       0.289999   -0.080497    2.109260
H      -0.761888   -3.456791    1.359177
H      -1.241941   -1.938646    2.216393
H      -1.931901   -0.069319    0.840958
H      -1.935012   -0.338102   -0.923477
