18

C       0.169932    1.458413   -0.140682
C      -0.067389   -0.027928    0.154298
C       0.461822   -0.946226   -0.971207
N       1.898499   -1.045637   -0.662567
C       2.012237   -1.180479    0.779723
C       0.756614   -0.488855    1.357017
O       0.292034   -1.772763    1.905894
C       1.392256   -2.443383    1.426612
O       1.631934   -3.604279    1.519111
H       1.223813    1.648804   -0.364480
H      -0.419864    1.777677   -1.004983
H      -0.118930    2.082863    0.710974
H      -1.129767   -0.208372    0.340948
H      -0.058706   -1.916012   -0.938379
H       0.318049   -0.519603   -1.968045
H       2.362143   -1.796040   -1.162699
H       3.002955   -0.913319    1.151991
H       0.869335    0.241549    2.158250
