19

C       0.096427    1.633665   -0.085053
C      -0.094684    0.115990   -0.048734
C       0.738427   -0.607063   -1.106959
C       0.586831   -2.126795   -1.042917
O      -0.013514   -2.701240   -0.171417
N       1.215529   -2.773347   -2.113430
C       1.425009   -4.159487   -2.259944
N       1.908786   -4.464838   -3.526646
O       1.269209   -4.976724   -1.390235
H       1.142427    1.909386    0.091084
H      -0.195968    2.053015   -1.054670
H      -0.508979    2.123659    0.683229
H       0.170591   -0.278883    0.936738
H      -1.150669   -0.136013   -0.193527
H       0.469618   -0.261045   -2.115094
H       1.804899   -0.368532   -0.985168
H       1.657364   -2.179011   -2.798132
H       1.569517   -3.924493   -4.308561
H       1.940070   -5.459368   -3.696156
