16

O       0.191216    1.361680    0.199540
C       0.119403    0.006925    0.036957
C       0.100461   -0.734763   -1.122477
N       0.017718   -2.059866   -0.742971
C      -0.017279   -2.156253    0.617402
C       0.051494   -0.882645    1.147772
C       0.019178   -0.486365    2.596056
C      -1.411613   -0.333407    3.086408
O      -1.870547   -0.885204    4.053032
H       0.285729    1.779046   -0.661661
H       0.141313   -0.442842   -2.158922
H      -0.004977   -2.836899   -1.378037
H      -0.077027   -3.113041    1.111083
H       0.526242   -1.211130    3.238694
H       0.515210    0.486100    2.714061
H      -2.034102    0.338196    2.452309
