20

C      -0.352253    1.351530    0.400193
O      -0.367056   -0.043587    0.564535
C       0.928830   -0.605965    0.582415
C       0.825498   -2.085940    0.776946
C      -0.332655   -2.794547    1.000690
N      -0.009314   -4.121501    1.153757
C      -0.960095   -5.201448    1.303269
C       1.348397   -4.266745    1.020055
C       1.895894   -3.026291    0.788333
H       0.117766    1.647741   -0.551769
H      -1.390147    1.694017    0.401589
H       0.189157    1.855504    1.217388
H       1.456154   -0.373174   -0.360800
H       1.527356   -0.144536    1.389505
H      -1.353458   -2.456358    1.060603
H      -1.327662   -5.561729    0.334823
H      -0.488254   -6.035392    1.828470
H      -1.814358   -4.862664    1.894880
H       1.806923   -5.239940    1.100757
H       2.946736   -2.813008    0.659706
