19

O       0.034615    1.366711    0.355582
C      -0.050473    0.053772   -0.166345
C      -1.421839   -0.544499    0.032283
C      -1.773504   -1.226466    1.318288
C      -1.619316   -2.040961    0.022775
C      -2.848017   -2.507573   -0.659386
C      -3.815867   -1.655860   -1.000409
C      -3.690300   -0.180832   -0.733223
O      -2.337851    0.261390   -0.664233
H      -0.714869    1.846387   -0.015409
H       0.189021    0.034571   -1.241403
H       0.697423   -0.548258    0.358358
H      -0.996560   -1.308960    2.070652
H      -2.777775   -1.138900    1.717077
H      -0.742534   -2.675298   -0.060810
H      -2.939152   -3.567348   -0.878264
H      -4.725911   -1.996541   -1.483892
H      -4.140647    0.398286   -1.546571
H      -4.227929    0.101490    0.188086
