14

C      -0.038991    1.546300    0.035088
C      -0.032814    0.049265    0.003444
C       0.011733   -0.772286   -1.112157
N      -0.000716   -0.492454   -2.484326
N       0.003192   -2.050155   -0.654199
N      -0.032922   -2.130912    0.698992
C      -0.063275   -0.862701    1.086687
H       0.555490    1.971233   -0.783372
H      -1.048333    1.969747   -0.045759
H       0.391480    1.919479    0.969220
H      -0.027922    0.504372   -2.655579
H       0.792911   -0.885105   -2.979325
H      -0.022126   -2.893014   -1.201877
H      -0.091571   -0.628004    2.142080
