17

O      -0.074243    1.384340   -0.029370
C      -0.027365   -0.025595    0.050829
C      -1.406914   -0.610810   -0.046470
C      -2.472844   -0.369728   -1.152100
C      -3.156576   -1.140114    0.008797
C      -1.912208   -2.077191    0.071094
N      -2.479935   -0.157454    0.955355
C      -4.545972   -1.507037    0.143982
N      -5.653505   -1.821161    0.247869
H      -0.792596    1.673043    0.547416
H       0.592766   -0.377287   -0.781099
H       0.449783   -0.369290    0.984737
H      -2.799462    0.660835   -1.279405
H      -2.348259   -0.908525   -2.091243
H      -1.744959   -2.751874   -0.772778
H      -1.745323   -2.572602    1.031259
H      -2.320380   -0.628417    1.853050
