21

C      -0.017884    1.512913    0.127294
C       1.335024    0.834057    0.010642
O       2.129756    0.344215    1.069112
C       1.629852   -0.999420    1.279624
C       0.119610   -0.777742    1.244765
C       0.080107    0.016228   -0.074239
C      -0.008439   -0.918293   -1.261285
C       1.342383   -1.705130   -1.257415
C       1.967353   -2.001767    0.146724
H      -0.389538    1.853531    1.088494
H      -0.276850    2.159422   -0.707496
H       1.902172    1.059215   -0.888455
H       2.047872   -1.340853    2.230883
H      -0.464965   -1.699906    1.193459
H      -0.217476   -0.193377    2.104185
H      -0.870973   -1.590203   -1.175900
H      -0.114609   -0.385960   -2.212664
H       1.240327   -2.647117   -1.807334
H       2.063588   -1.106831   -1.822799
H       3.053567   -2.088876    0.037680
H       1.615702   -2.977556    0.506261
