17

O       0.018835    1.489489   -0.067429
C      -0.000077    0.102745    0.042015
C       0.110689   -0.643099    1.411146
C      -1.001650   -0.021715    2.277613
C      -2.086532   -0.031500    1.187033
C      -3.532838    0.050537    1.343776
O      -2.783415    1.183925    0.868873
C      -1.319028   -0.716656    0.054666
O      -0.595047   -1.756271    0.770594
H      -0.826579    1.845068    0.231485
H       0.710584   -0.318425   -0.670822
H       1.056091   -0.919270    1.875423
H      -1.244224   -0.654768    3.133482
H      -0.781049    0.992037    2.622105
H      -4.189307   -0.412152    0.608107
H      -3.960311    0.168853    2.338240
H      -1.858364   -1.044651   -0.832890
