14

C       0.023855    1.375910   -0.069747
N       0.212371   -0.063154   -0.068302
C       0.662426   -0.626585    0.952605
O       1.030394   -0.051508    2.155798
C       1.458279   -1.079835    2.971776
C       1.370269   -2.235677    2.322140
N       1.675197   -3.534012    2.699805
O       0.868780   -1.973698    1.037761
H       0.698857    1.832748   -0.803294
H      -0.997605    1.603785   -0.393581
H       0.195441    1.856130    0.901188
H       1.787726   -0.829192    3.964009
H       2.395153   -3.941839    2.110316
H       0.861763   -4.141447    2.661252
