19

C      -0.127829    1.567163   -0.034678
C      -0.003360    0.058905    0.056237
N       1.190168   -0.565279   -0.668831
C       2.092558   -0.286334    0.566045
C       2.581864   -1.736579    0.588032
C       1.086900   -1.795747    0.269412
C       0.711263   -0.619520    1.231414
C       0.350167   -0.669093    2.693972
H       0.784061    2.075474    0.293564
H      -0.329373    1.870839   -1.067266
H      -0.955047    1.925242    0.587865
H      -0.941078   -0.422841   -0.254645
H       2.672460    0.635038    0.637594
H       3.257325   -2.026765   -0.221000
H       2.905895   -2.140758    1.550291
H       0.459601   -2.644828   -0.011736
H       1.082059   -1.249498    3.266665
H       0.311808    0.337517    3.125154
H      -0.632294   -1.132000    2.839902
