18

C       0.155304    1.530703    0.103690
C      -0.173601    0.045425   -0.084163
C       0.602819   -0.577885   -1.227700
O       2.056333   -0.555365   -1.043279
C       2.141315   -1.942695   -1.372735
C       1.426817   -2.776630   -0.341137
C       0.647632   -2.095025   -1.447682
O      -0.129124   -2.766659   -2.369834
H       1.222492    1.662448    0.302616
H      -0.092127    2.107283   -0.794272
H      -0.404984    1.956939    0.941022
H       0.035692   -0.502387    0.841473
H      -1.243902   -0.081691   -0.296030
H       0.362655   -0.078658   -2.176956
H       2.957229   -2.277192   -2.001500
H       1.522968   -3.848368   -0.491025
H       1.383694   -2.449462    0.693777
H      -0.842423   -3.211713   -1.899553
