19

C      -0.602726    1.398076    0.102362
C      -0.086212   -0.024104   -0.046845
C       0.765102   -0.408503   -1.294544
C       1.775683    0.640306   -1.789405
O       2.768867    0.206333   -0.827725
C       1.929076   -0.861155   -0.372138
C       1.090548   -0.513467    0.900776
C       1.666353    0.419684    1.843229
C       2.130386    1.201955    2.630164
H       0.207607    2.131813    0.103185
H      -1.293353    1.646551   -0.711156
H      -1.141094    1.513405    1.048294
H      -0.924971   -0.719820    0.047842
H       0.290305   -1.038330   -2.045791
H       2.124292    0.475664   -2.816834
H       1.513005    1.696963   -1.669537
H       2.432430   -1.831519   -0.390913
H       0.798838   -1.430950    1.423715
H       2.554226    1.887826    3.320855
