18

C      -0.056395    1.517371    0.081291
C       1.486750    1.446818   -0.035138
O       2.037424    1.127802    1.250776
C       1.732623   -0.219810    1.579629
C       2.610779   -1.157759    0.750630
N       2.254025   -0.970738   -0.668262
C       1.300712    0.099073   -0.819843
C       0.001900   -0.030800    0.031613
O       0.367334   -0.514489    1.332331
H      -0.458457    1.958893    0.993625
H      -0.527146    1.951215   -0.805346
H       2.062544    2.277674   -0.447053
H       1.901116   -0.337072    2.651876
H       3.662480   -0.920431    0.950454
H       2.429128   -2.194404    1.063082
H       3.073324   -0.818439   -1.241714
H       1.072773    0.273907   -1.872778
H      -0.844417   -0.623697   -0.317859
