19

C      -0.205687    1.512711    0.007926
C       0.075530    0.020256    0.040543
O       0.896705   -0.337009   -1.065818
C       1.292359   -1.676807   -0.834672
C       1.504445   -1.819997    0.696562
O       2.870341   -1.843987    1.087269
C       0.847999   -0.534835    1.270861
C       1.895781    0.456722    1.752646
O       1.894690    0.938463    2.856140
H       0.719494    2.094320    0.028498
H      -0.748552    1.768899   -0.905552
H      -0.816141    1.803179    0.867737
H      -0.881729   -0.527301   -0.024659
H       0.510120   -2.373499   -1.177801
H       2.211641   -1.870589   -1.394210
H       0.989286   -2.713476    1.072747
H       3.253434   -2.684487    0.819604
H       0.184095   -0.743985    2.111646
H       2.655661    0.740559    0.997544
