18

O       0.024878    1.439597   -0.038939
C       0.034116    0.036209   -0.017351
C       0.015181   -0.707790    1.366386
C      -1.427773   -0.150105    1.549195
C      -1.368687   -0.624624    0.062023
C      -0.661526   -1.882257    0.609093
O       0.101357   -2.623618   -0.328636
C       0.522757   -3.844754    0.049978
N       1.298988   -4.505860   -0.693860
H       0.936067    1.744402   -0.075834
H       0.712618   -0.376796   -0.767167
H       0.808336   -0.771174    2.112443
H      -2.091435   -0.706244    2.216874
H      -1.503069    0.924020    1.695646
H      -2.160802   -0.589289   -0.685325
H      -1.279560   -2.551648    1.216227
H       0.115347   -4.166677    1.018911
H       1.495749   -5.410287   -0.270296
