21

C       0.093960    1.609337   -0.089549
C       0.020017    0.079501   -0.058258
C      -1.410885   -0.489186   -0.003916
C      -2.234852   -0.156270   -1.256839
C      -1.368491   -2.008564    0.205913
C      -0.902775   -2.574003    1.563001
O      -2.212493   -3.197660    1.766001
C      -2.687537   -2.696393    0.580149
O      -3.782431   -2.815860    0.129989
H       1.134119    1.948065   -0.065284
H      -0.364633    2.021687   -0.992835
H      -0.418208    2.047702    0.774311
H       0.530340   -0.332496   -0.939899
H       0.580882   -0.282674    0.813294
H      -1.917471   -0.048450    0.867776
H      -3.218266   -0.630885   -1.212729
H      -2.380927    0.921772   -1.362232
H      -1.728326   -0.515861   -2.160803
H      -0.892704   -2.496694   -0.651489
H      -0.114508   -3.328730    1.542524
H      -0.707533   -1.836018    2.344932
