23

C      -0.048185    1.421433    0.014033
O      -0.013339    0.015951    0.018433
C       0.624800   -0.524041   -1.119611
C       0.636684   -2.045215   -1.000496
C       1.270285   -2.742125   -2.234329
C       2.062753   -3.945617   -1.669371
C       2.251480   -3.595014   -0.206283
C       3.173804   -4.379386    0.672649
C       1.472479   -2.569682    0.143897
H       0.963929    1.857213    0.003603
H      -0.596457    1.814967   -0.857224
H      -0.559914    1.741317    0.925322
H       0.094158   -0.215869   -2.038153
H       1.659052   -0.144602   -1.197101
H      -0.410247   -2.357553   -0.870019
H       0.528244   -3.031232   -2.982993
H       1.964146   -2.047204   -2.722380
H       1.502507   -4.887254   -1.766600
H       3.014123   -4.106325   -2.191457
H       4.204230   -4.348305    0.295343
H       3.175026   -4.001103    1.698519
H       2.888247   -5.439240    0.701592
H       1.397968   -2.152560    1.142026
