21

C      -0.063178    1.581854    0.045795
C      -0.026467    0.049037   -0.015333
C       0.635137   -0.480052   -1.264287
C       0.056053   -0.394572   -2.691571
C       1.121001   -1.468243   -3.034146
C       2.427261   -0.661022   -2.881774
C       2.224199   -0.447907   -1.370960
O       2.294899   -1.821857   -0.880453
C       1.018217   -1.960245   -1.510936
H       0.946800    2.004870    0.014968
H      -0.623156    2.000045   -0.797336
H      -0.540058    1.928569    0.967455
H       0.506999   -0.346337    0.858184
H      -1.050284   -0.343005    0.043249
H      -0.965934   -0.787173   -2.709262
H       0.094318    0.550215   -3.242404
H       1.012904   -2.142472   -3.881405
H       3.341637   -1.227359   -3.070068
H       2.427902    0.255212   -3.478690
H       2.853556    0.247867   -0.816695
H       0.444114   -2.846016   -1.240740
