16

C       0.025187    1.462637   -0.055705
N      -0.011001    0.012920   -0.003313
C       0.531996   -0.661009   -0.923385
O       1.169862    0.010441   -2.002570
C       1.755286   -0.693843   -2.992478
N       2.351155    0.122872   -3.897168
N       1.802585   -1.980024   -3.098632
C       1.199810   -2.676114   -2.071390
C       0.584629   -2.096670   -1.017253
H       1.052419    1.852717   -0.065425
H      -0.476301    1.858075   -0.950200
H      -0.483681    1.863512    0.824097
H       2.078238    1.090797   -3.915820
H       2.642191   -0.307378   -4.758837
H       1.248140   -3.756789   -2.163267
H       0.117006   -2.663007   -0.224587
