15

C       0.103058    1.523685   -0.350232
C      -0.019457    0.064097    0.002851
N       1.189174   -0.754153   -0.081316
C       0.580386   -0.546518    1.240294
C       1.343612    0.214022    2.242645
N       2.328723    1.043944    2.035681
O       2.667810    1.484439    3.271942
N       1.845478    0.875840    4.211268
N       1.054175    0.117974    3.596780
H       1.050014    1.935245    0.004359
H       0.063007    1.649364   -1.437073
H      -0.720197    2.097446    0.087855
H      -0.955399   -0.404170   -0.301508
H       0.987201   -1.693304   -0.412706
H       0.020310   -1.358488    1.696040
