20

C       0.015363    1.568411    0.009454
C       0.038932    0.038592    0.010371
C       0.726826   -0.522734   -1.248665
C       1.048487   -1.991038   -1.139260
C       0.982537   -2.677602    0.002819
C       0.594250   -2.051443    1.320395
C       0.723012   -0.522703    1.273272
O       2.090501   -0.120544    1.350368
H       1.032068    1.960741    0.106569
H      -0.419663    1.960422   -0.916083
H      -0.574865    1.955854    0.846882
H      -0.995212   -0.333444    0.021264
H       0.092478   -0.345851   -2.126554
H       1.649968    0.043068   -1.448219
H       1.353967   -2.495716   -2.053284
H       1.220167   -3.738725    0.008250
H      -0.434730   -2.334528    1.584333
H       1.229855   -2.434701    2.127750
H       0.254077   -0.086607    2.162647
H       2.581949   -0.661965    0.722217
