12

O       0.123078    1.215968   -0.656050
C      -0.000398    0.022638    0.091751
C      -1.409721   -0.495551    0.070796
N      -2.107510   -0.719693    1.148465
O      -3.338250   -1.150332    0.723304
N      -3.418254   -1.188870   -0.626570
C      -2.244495   -0.789109   -1.056947
C      -1.931027   -0.695314   -2.439397
N      -1.646562   -0.620245   -3.557099
H      -0.346521    1.916689   -0.190461
H       0.662802   -0.703438   -0.388784
H       0.318089    0.131599    1.135688
