17

N       0.256366   -1.244050    0.201449
C       0.177895   -0.090256    0.161042
C       0.034129    1.339716    0.053747
C       0.428026    2.239085    1.194687
C       0.984297    1.680117    2.493142
C       2.313598    0.997253    2.338794
C       3.003453    0.988554    1.203455
C       2.543193    1.656412   -0.060895
N       1.195099    2.237491   -0.046336
H      -0.801903    1.630331   -0.578257
H      -0.189564    3.127675    1.312176
H       1.083123    2.507903    3.208079
H       0.255272    0.992615    2.942816
H       2.705393    0.500039    3.221243
H       3.967441    0.489955    1.148832
H       3.230639    2.476878   -0.308628
H       2.600637    0.954842   -0.902656
