10

O      -0.042984   -0.029720    0.003257
C       0.046306    1.157936    0.008642
O      -1.201344    1.882526    0.029150
C      -1.219414    3.208013    0.036586
C      -0.086505    3.945323    0.025480
C       1.129671    3.202601    0.005162
N       1.205671    1.904211   -0.002898
H      -2.227462    3.611724    0.052229
H      -0.109094    5.025221    0.031652
H       2.079644    3.737927   -0.004646
