17

C      -0.033600    1.605870    0.018312
C       0.081889    0.094379   -0.044785
C       0.806830   -0.621665   -1.178533
C       2.278100   -0.708547   -0.764983
C       2.374793   -0.051557    0.601769
N       1.008557   -0.613315    0.948509
C       1.255722   -1.656206   -0.172603
C       1.142819   -3.061058   -0.088045
N       1.053570   -4.214368   -0.027456
H       0.882645    2.118382   -0.283663
H      -0.833616    1.941503   -0.649466
H      -0.291036    1.921301    1.034944
H      -0.903082   -0.357871    0.104943
H       0.497135   -0.805314   -2.199842
H       3.052041   -0.955615   -1.480415
H       3.119296   -0.533539    1.238851
H       2.467529    1.033907    0.683788
