13

C      -0.069201    1.442091    0.135863
N       0.321525    0.056370   -0.119068
C       0.705307   -0.731182    0.944904
C       0.562418   -2.045981    1.272251
N       1.278972   -2.296992    2.440669
C       1.789494   -1.160773    2.760590
O       1.489567   -0.144814    1.893334
H       0.761003    1.969538    0.608968
H      -0.279415    1.925433   -0.820649
H      -0.953116    1.536181    0.783987
H      -0.319168   -0.434778   -0.726101
H       0.009570   -2.816677    0.761047
H       2.399585   -0.899078    3.609371
