21

C      -0.064549    1.551135    0.123932
C       0.027165    0.017106    0.082175
C       0.724567   -0.524689    1.340838
C      -1.393427   -0.585272   -0.037289
O      -2.230939   -0.289147    1.060707
N       0.715432   -0.409081   -1.150293
C       2.028781   -0.099115   -1.431762
N       2.534017   -0.789850   -2.532930
O       2.710468    0.680697   -0.790339
H       0.933830    1.987503    0.135485
H      -0.600480    1.931793   -0.752450
H      -0.590988    1.872798    1.028369
H       0.131766   -0.287825    2.227939
H       0.825837   -1.614029    1.282969
H       1.720079   -0.089308    1.439256
H      -1.838833   -0.256401   -0.989537
H      -1.320257   -1.680355   -0.065003
H      -2.465038    0.642733    1.013934
H       0.392434   -1.284963   -1.535742
H       1.889658   -1.003251   -3.280206
H       3.406525   -0.397047   -2.853762
