15

C      -0.012978    1.404218   -0.002763
N       0.012410   -0.047660    0.040454
C      -1.091368   -0.657812    0.068261
N      -1.262658   -2.039981    0.100258
C      -2.626472   -2.325453   -0.005393
N      -3.041500   -3.648243   -0.150836
C      -3.278192   -1.154864    0.014640
O      -2.352802   -0.107137    0.068772
H       0.955074    1.766686   -0.360272
H      -0.796661    1.805258   -0.660360
H      -0.175454    1.834484    0.995777
H      -0.541507   -2.642146   -0.261669
H      -2.711517   -4.243029    0.603087
H      -4.048486   -3.722612   -0.217139
H      -4.318911   -0.887820    0.029174
