22

C       0.668663    1.346478   -0.435688
C      -0.013352    0.120642    0.126543
N       0.822508   -1.065243    0.377895
C       0.170719   -0.390057    1.512644
C       1.065397    0.254953    2.536290
O       1.324480   -0.703785    3.551174
C       2.171851   -0.229503    4.548079
C       2.970754   -1.254692    5.282722
C       3.663767   -0.293562    4.334998
H       1.673915    1.466435   -0.026542
H       0.760903    1.265239   -1.524116
H       0.091442    2.251080   -0.214880
H      -1.002737   -0.060256   -0.293832
H       0.326682   -1.918603    0.136757
H      -0.689624   -0.884361    1.961768
H       2.004120    0.586782    2.074312
H       0.569192    1.139033    2.972507
H       1.775000    0.618520    5.109432
H       3.112516   -1.133928    6.350728
H       2.858139   -2.279930    4.949527
H       4.001806   -0.699398    3.388058
H       4.288207    0.491552    4.747200
