21

C      -0.606729    1.055719    0.132223
O       0.468993    0.171506   -0.108981
C       0.942198   -0.438061    1.051930
C       0.235909   -1.664578    1.580119
C       1.585711   -1.781688    0.898193
C       1.695013   -2.421349   -0.464364
C       1.911538   -3.930250   -0.411445
C       1.852801   -4.656385   -1.745184
O       2.127659   -4.515275    0.624823
H      -0.312024    1.876984    0.803027
H      -0.901716    1.476250   -0.832124
H      -1.466396    0.536759    0.579823
H       1.368810    0.258967    1.775564
H       0.171431   -1.824161    2.650488
H      -0.628168   -2.004158    1.017551
H       2.427814   -1.985616    1.550909
H       0.813764   -2.197551   -1.075364
H       2.538980   -1.995106   -1.027964
H       2.500343   -4.172049   -2.484080
H       2.148472   -5.698090   -1.615076
H       0.832398   -4.616395   -2.144353
