19

C      -0.098645    1.662126    0.145869
C       0.000968    0.139259    0.003410
C       0.722846   -0.345006   -1.266593
C       0.743457   -1.901083   -1.268078
O       1.410302   -2.338160   -2.441482
C       0.002020    0.064735   -2.551964
O      -1.168918    0.340451   -2.602581
C       2.187603    0.092416   -1.320177
O       2.831859    0.390567   -0.347702
H       0.891596    2.122388    0.190187
H      -0.658109    2.102706   -0.683145
H      -0.623488    1.916080    1.071493
H       0.533365   -0.271809    0.866838
H      -1.005272   -0.291324   -0.000298
H       1.258360   -2.238558   -0.356881
H      -0.295972   -2.258360   -1.232830
H       1.425858   -3.299699   -2.446697
H       0.629202    0.062660   -3.468365
H       2.646638    0.089069   -2.331332
