21

C      -0.084599    1.563997   -0.047513
C       0.048393    0.035997   -0.015683
C       0.663627   -0.500664   -1.288075
C       1.499753   -1.536363   -1.340892
C       1.929643   -2.320736   -0.129875
C       1.061922   -2.002746    1.094193
C       0.816107   -0.481359    1.235098
C       2.073181    0.229211    1.468162
C       3.115750    0.791873    1.676340
H       0.894720    2.042435   -0.134503
H      -0.696453    1.877587   -0.899648
H      -0.563255    1.936263    0.864492
H      -0.969853   -0.374796    0.069429
H       0.388103    0.016016   -2.205429
H       1.912694   -1.844166   -2.298886
H       1.888044   -3.395566   -0.346123
H       2.984037   -2.101992    0.089496
H       0.085329   -2.490226    0.989360
H       1.524481   -2.393589    2.005322
H       0.174951   -0.313297    2.110709
H       4.031402    1.296679    1.860784
