21

C       0.320222    1.444815   -0.229176
C      -0.072805   -0.006266    0.098829
C       0.531651   -0.513966    1.362390
C       0.020458   -0.927784    2.550278
C       1.133274   -1.294618    3.388535
C       1.052816   -1.812430    4.791558
C       2.248969   -1.071692    2.637724
C       3.707073   -1.234981    2.879518
O       1.895009   -0.596452    1.402078
H       1.405908    1.539795   -0.317788
H      -0.129266    1.764987   -1.174148
H      -0.013892    2.127018    0.558503
H      -1.160540   -0.090411    0.190041
H       0.222312   -0.655431   -0.736414
H      -1.026689   -0.973209    2.810586
H       0.477469   -2.744335    4.843349
H       2.043955   -2.015037    5.206287
H       0.557922   -1.094990    5.456781
H       4.157791   -1.937511    2.168483
H       4.241710   -0.283002    2.778706
H       3.884106   -1.615729    3.887646
