18

C       0.300196    1.100532    0.499647
N      -0.358829    0.289470   -0.511297
C       0.491769   -0.362049   -1.444728
C       1.314214   -1.619843   -1.161459
N       1.170785   -2.297005    0.099837
C       0.026119   -1.691418   -2.011823
O      -1.056451   -2.296756   -1.384968
C       0.122334   -1.942521   -3.427771
N       0.236289   -2.124142   -4.564483
H       1.017175    0.559423    1.142789
H       0.851886    1.914548    0.016066
H      -0.456810    1.552718    1.146014
H      -1.034502   -0.359761   -0.129043
H       0.967991    0.311386   -2.154218
H       2.257167   -1.711117   -1.694962
H       1.742397   -3.132887    0.134940
H       1.421974   -1.707835    0.884850
H      -0.670419   -2.707205   -0.585855
