15

C      -0.023604    1.538927    0.000188
C       0.054087    0.031599   -0.041827
O      -1.008644   -0.611197   -0.675106
C       1.356983   -0.680917   -0.232141
C       0.686393   -0.709995    1.141196
O       1.214246    0.078938    2.164100
C       0.057834   -1.934993    1.581661
N      -0.436498   -2.904126    1.974922
H       0.825871    1.965432    0.535052
H      -0.045362    1.933805   -1.019848
H      -0.937728    1.861206    0.511772
H      -1.811429   -0.459858   -0.161924
H       1.341730   -1.590005   -0.821230
H       2.261968   -0.086602   -0.290394
H       2.005445   -0.354510    2.505491
