21

O       0.216942    0.502108    1.071735
C      -0.129777    0.258816   -0.277744
C      -1.480796   -0.434632   -0.391243
C      -2.042074   -0.903041   -1.777224
C      -2.186024   -2.327384   -1.218501
C      -0.838325   -2.831003   -0.791830
C      -1.583138   -1.886183    0.118382
C      -1.918541   -2.245703    1.527411
O      -0.752361   -1.985825    2.325416
H       0.094436   -0.327650    1.559094
H      -0.165679    1.236107   -0.774728
H       0.645096   -0.332733   -0.794935
H      -2.223305    0.185897    0.122686
H      -2.988728   -0.422139   -2.030615
H      -1.364934   -0.810732   -2.633372
H      -3.019417   -2.996142   -1.399428
H      -0.806679   -3.859319   -0.445107
H       0.057401   -2.515812   -1.320552
H      -2.765208   -1.641655    1.885694
H      -2.202835   -3.305846    1.602773
H      -1.013983   -1.952063    3.250858
