18

O       0.066381    1.325698   -0.631381
C       0.060854    0.204124    0.232240
C      -1.314972   -0.415544    0.316938
N      -1.733499   -1.103282   -0.947097
C      -1.547375   -1.865810    0.257849
C      -0.759193   -3.171700    0.459016
C      -1.271480   -3.212562    1.920630
C      -2.458912   -2.863139    0.988802
O      -1.983289   -3.911081    0.051080
H      -0.267511    1.006088   -1.478396
H       0.781973   -0.560024   -0.095840
H       0.379502    0.566327    1.215540
H      -2.067864    0.193301    0.815516
H      -2.719980   -0.952366   -1.142463
H       0.191157   -3.494604    0.036889
H      -1.320649   -4.213074    2.349997
H      -0.916273   -2.451973    2.620286
H      -3.527411   -2.817988    1.201967
