16

C      -0.025415    1.525276   -0.052278
C      -0.064287    0.029802    0.039376
O       0.319605   -0.711669   -1.182849
C      -0.313868   -1.861935   -0.527285
C       0.558894   -2.022729    0.726007
C       0.731037   -0.752030    1.106305
C      -1.333539   -0.838905   -0.003324
N      -2.561363   -0.630136    0.160279
O      -3.326440   -1.783655   -0.133617
H       0.997882    1.868307   -0.231200
H      -0.662753    1.876092   -0.866755
H      -0.380986    1.968228    0.882649
H      -0.548132   -2.700053   -1.176775
H       0.887741   -2.947310    1.176402
H       1.245401   -0.332169    1.958472
H      -4.223582   -1.470506    0.023157
