21

C      -0.096667    1.614669    0.032925
C       0.050761    0.099997   -0.020310
C       1.155293   -0.531701   -0.946344
C       1.739872   -1.285107    0.263800
C       2.158279   -0.325571    1.335767
C       0.687512   -0.639257    1.182768
C       0.138198   -1.757228    1.992640
C       0.730031   -2.917361    1.670884
C       1.743828   -2.783890    0.535111
H       0.854607    2.105896    0.263819
H      -0.446912    2.009161   -0.927614
H      -0.818834    1.913054    0.800995
H      -0.918655   -0.352493   -0.249628
H       0.739233   -1.195052   -1.708597
H       1.835254    0.174122   -1.437408
H       2.632088   -0.750242    2.213864
H       2.538951    0.652422    1.051995
H      -0.621185   -1.645824    2.759983
H       0.550326   -3.863102    2.174073
H       1.430065   -3.357968   -0.347746
H       2.728453   -3.177703    0.818896
