18

O       0.135618    1.131981    0.402379
C       0.157363   -0.216565    0.014638
C      -1.228741   -0.882944   -0.165670
O      -0.873098   -1.183326   -1.577373
C       0.305789   -0.492494   -1.468267
N       1.163542   -0.150677   -2.317747
C      -1.569657   -2.106080    0.614103
C      -2.428414   -1.969564    1.851532
C      -2.986820   -2.625679    0.618594
H       0.819187    1.583443   -0.106634
H       0.837164   -0.813646    0.638659
H      -2.035316   -0.143875   -0.150094
H       0.910543   -0.454379   -3.259543
H      -0.777904   -2.849194    0.649141
H      -2.182248   -2.589748    2.705440
H      -2.789405   -0.980221    2.111637
H      -3.725317   -2.080191    0.040869
H      -3.130024   -3.699946    0.622723
