11

N      -0.090818    1.297778    0.009493
C       0.111474   -0.035113    0.001391
O       1.151530   -0.629213   -0.010751
N      -1.160848   -0.754995    0.010274
N      -1.249456   -2.080373    0.006751
C      -2.559019   -2.251970    0.017329
N      -3.248447   -1.078018    0.027248
N      -2.350438   -0.139179    0.022570
H       0.719050    1.892705    0.002313
H      -1.020168    1.684975    0.017653
H      -3.029994   -3.221247    0.018215
