21

C       0.169373    1.413559   -0.217114
C       0.079444   -0.039457   -0.174206
C       0.015716   -1.242007   -0.140388
C      -0.090519   -2.696354   -0.088746
C      -1.516409   -3.207678    0.229363
C      -2.522476   -2.821141   -0.891790
C      -2.654997   -4.088309   -1.701072
C      -2.122490   -5.138275   -1.078639
C      -1.537430   -4.763007    0.262195
H       0.840064    1.795923    0.560570
H       0.551441    1.762606   -1.183066
H      -0.811006    1.878447   -0.063500
H       0.229989   -3.127104   -1.047593
H       0.603001   -3.087256    0.667272
H      -1.817403   -2.784972    1.191291
H      -3.495182   -2.522127   -0.477209
H      -2.167854   -1.965388   -1.477331
H      -3.155437   -4.117818   -2.662940
H      -2.121814   -6.156719   -1.451645
H      -0.537716   -5.185409    0.425865
H      -2.163993   -5.142534    1.081296
