20

C      -0.186118    1.488009   -0.017902
C       0.068489   -0.016800   -0.004986
N       0.783289   -0.433659   -1.206271
C       0.809343   -1.884598   -1.315458
C       1.246715   -2.581087   -0.032156
O       1.589812   -3.732195   -0.024537
O       1.166153   -1.899309    1.130286
C       0.913305   -0.471346    1.192598
C       2.251008    0.244058    1.350293
H       0.741465    2.042540   -0.180540
H      -0.881870    1.747196   -0.822930
H      -0.633061    1.819108    0.924210
H      -0.908246   -0.532043    0.083614
H       0.362145   -0.027659   -2.034673
H      -0.176468   -2.325734   -1.556481
H       1.500602   -2.201258   -2.100184
H       0.320607   -0.352728    2.105822
H       2.807897    0.223801    0.410449
H       2.102881    1.285446    1.649686
H       2.839619   -0.253158    2.124781
