20

C       0.254952    1.493465    0.130398
C      -0.123772    0.039705   -0.161994
N       0.622813   -0.527106   -1.268924
C       1.750321   -1.294089   -1.211467
C       2.158478   -1.496511   -2.515283
N       3.300434   -2.169272   -2.991265
C       1.207086   -0.799030   -3.301867
C       1.161418   -0.687392   -4.791721
N       0.285656   -0.217032   -2.530216
H       1.310378    1.575309    0.406978
H       0.081438    2.110952   -0.754261
H      -0.349761    1.885091    0.954511
H       0.054876   -0.592874    0.713032
H      -1.185434   -0.032497   -0.414596
H       2.158998   -1.631236   -0.271731
H       3.657964   -2.844512   -2.327486
H       3.123144   -2.645215   -3.867685
H       1.033218   -1.665445   -5.274296
H       0.322882   -0.054706   -5.090175
H       2.084600   -0.250576   -5.190574
