15

C       0.032137   -1.229466   -0.008782
C      -0.009262   -0.030516   -0.016116
C      -0.021287    1.431931   -0.008731
C       1.422479    2.007442   -0.002444
C       1.437295    3.545567    0.075498
C       2.799279    4.069394    0.133516
N       3.883682    4.464541    0.182726
C      -0.792374    1.961536   -1.147303
N      -1.376854    2.414657   -2.034485
H       0.057947   -2.291822   -0.006305
H      -0.530687    1.775149    0.903286
H       1.944396    1.581029    0.857577
H       1.944642    1.671564   -0.901528
H       0.929070    3.976881   -0.794077
H       0.894587    3.889905    0.964155
