22

C       0.178588    1.595703   -0.061057
C      -0.013529    0.077066   -0.007185
C       0.673630   -0.551798    1.209829
C       0.680138   -2.091626    1.242414
C      -0.722015   -2.707881    1.181187
O       1.395804   -2.628416    0.118997
C       1.320954   -2.546626    2.578608
N       2.287031   -3.493707    2.443451
O       0.966045   -2.085632    3.647955
H       1.239975    1.860581   -0.126697
H      -0.327134    2.029742   -0.929078
H      -0.224761    2.077550    0.836301
H      -1.085695   -0.148465    0.014253
H       0.377161   -0.381157   -0.923707
H       1.721218   -0.212947    1.247270
H       0.220083   -0.200301    2.141123
H      -1.228616   -2.420878    0.257646
H      -0.650908   -3.799275    1.203447
H      -1.310704   -2.380062    2.040442
H       2.175947   -2.079719   -0.019929
H       2.426879   -3.921524    1.543543
H       2.655026   -3.923964    3.275750
