19

O      -0.007297    1.168680   -0.479569
C      -0.180976   -0.228888   -0.256400
C      -1.592519   -0.397329    0.288780
O      -1.753768    0.375204    1.452729
C      -2.697324   -0.249130   -0.817040
C      -2.801431   -1.775139   -0.828364
C      -3.758577   -2.682799   -1.453514
O      -2.429275   -2.531682   -1.976079
C      -2.004639   -1.881825    0.474681
H       0.919344    1.339900   -0.668010
H      -0.055188   -0.805742   -1.183562
H       0.535951   -0.602459    0.489673
H      -1.324059    1.221117    1.268709
H      -3.588521    0.232337   -0.406454
H      -2.411668    0.229614   -1.755794
H      -3.971857   -3.648141   -0.995010
H      -4.554457   -2.283679   -2.081719
H      -1.208002   -2.630310    0.499492
H      -2.641000   -1.990811    1.356746
