24

C       0.573576    0.761632    0.824283
C      -0.293663    0.196556   -0.307951
C       0.512372   -0.349262   -1.508100
C       0.824032   -1.859342   -1.357236
C       1.793557   -2.398505   -2.401816
O       1.413905   -2.152890   -0.090188
N      -0.265745   -0.159667   -2.737253
C      -0.338676    1.197064   -3.268044
C       0.460445    0.153795   -3.963425
H       1.298269    0.026770    1.182777
H       1.141259    1.632429    0.478139
H      -0.043267    1.083560    1.669437
H      -0.960077   -0.589932    0.073395
H      -0.960490    0.984654   -0.672190
H       1.472987    0.198209   -1.560564
H      -0.137170   -2.386938   -1.457601
H       2.746686   -1.860956   -2.354816
H       1.992620   -3.454571   -2.201192
H       1.385042   -2.307016   -3.409772
H       0.732947   -2.070780    0.583452
H      -1.306607    1.506016   -3.652875
H       0.216959    1.980953   -2.754798
H       1.543692    0.246953   -3.907769
H       0.091777   -0.318019   -4.870210
