15

N      -0.017850   -1.127574   -0.199247
C       0.004388    0.021731   -0.066822
C       0.015863    1.432342    0.140723
C      -1.115884    2.281250    0.751242
C      -0.425951    3.602541    1.059108
C       1.073933    3.417174    1.162924
C       1.223684    2.316357    0.138574
N       0.236071    2.437975   -0.967192
C      -0.865073    3.277605   -0.344103
H      -2.030272    1.917997    1.195191
H      -0.963361    4.351163    1.626681
H       1.628341    4.316948    0.877602
H       1.404000    3.097819    2.156281
H       2.186691    1.916411   -0.156242
H      -1.523906    3.852080   -0.978991
