19

C       0.037640    1.542212    0.176013
O       1.446618    1.558945   -0.299964
C       1.157763    0.273085   -0.881218
C       0.298483    0.138510   -2.160373
C      -0.141920   -0.978714   -1.204508
C       1.409202   -1.273979   -0.860038
C       1.494146   -1.768287    0.575671
C       0.469552   -0.812438    1.248923
C      -0.019044   -0.010935    0.038678
H      -0.029609    1.917036    1.199611
H      -0.598857    2.136493   -0.484219
H      -0.427180    0.928133   -2.361143
H       0.813708   -0.167756   -3.073160
H      -0.879925   -1.762394   -1.392277
H       2.020859   -1.756144   -1.627062
H       1.214320   -2.823566    0.652750
H       2.501013   -1.664047    0.990678
H      -0.344247   -1.348119    1.747678
H       0.945112   -0.168386    1.994340
