21

C      -0.328633    1.455678   -0.001626
C       0.091464   -0.019890    0.053380
C       0.809242   -0.479618   -1.176258
C       0.417146   -0.738953   -2.595242
O       1.418103    0.090520   -3.183678
C       2.135776   -0.039003   -1.923889
C       2.600823   -1.515268   -1.917011
C       1.114638   -1.855664   -1.786088
C       0.483061   -3.183708   -1.494680
H       0.542392    2.109068   -0.115357
H      -0.994747    1.641703   -0.849700
H      -0.850851    1.749536    0.914109
H       0.723405   -0.189815    0.935910
H      -0.795622   -0.650965    0.195846
H      -0.542500   -0.841426   -3.087213
H       2.795827    0.799869   -1.710504
H       3.153285   -1.853287   -2.800608
H       3.147788   -1.766863   -1.003392
H       0.877714   -3.626426   -0.572724
H      -0.602620   -3.092104   -1.376574
H       0.665326   -3.894454   -2.309292
