18

C      -0.115215    1.457018    0.006846
N      -0.039025    0.013861    0.047908
C      -0.058355   -0.834601   -1.029213
N       0.012393   -2.115709   -0.693776
C       0.061739   -2.074166    0.665782
C       0.007580   -0.805251    1.158313
C       0.230475   -0.783135    2.635350
C      -0.003599   -2.309068    2.930503
N       0.289756   -3.039294    1.663364
H       0.761013    1.910171    0.482080
H      -0.150827    1.781659   -1.035031
H      -1.014289    1.819409    0.516492
H      -0.146131   -0.454349   -2.036682
H       1.253890   -0.482805    2.904391
H      -0.453879   -0.161356    3.222259
H       0.632704   -2.674120    3.740550
H      -1.052483   -2.449442    3.227761
H      -0.255583   -3.887169    1.562686
