15

O      -0.030033    1.457531   -0.066093
C       0.054974    0.045230   -0.038664
C       0.752767   -0.494220    1.203645
C      -0.017332   -1.327037    1.903406
C      -1.356567   -1.460529    1.250260
O      -2.086570   -0.198972    1.149481
C      -1.327449   -0.625871    0.027186
C      -2.221522   -2.661357    1.377284
O      -1.861818   -3.687394    1.897059
H      -0.592161    1.706618    0.679120
H       0.579798   -0.240229   -0.957073
H       1.743525   -0.153158    1.480049
H       0.231133   -1.837532    2.824171
H      -1.893952   -0.847418   -0.873227
H      -3.238529   -2.527280    0.950903
