14

O      -0.095148    1.413894    0.012187
C      -0.004324    0.004722    0.024518
C       0.489757   -0.612570    1.384056
C      -0.813176   -1.314618    1.793769
O      -1.232527   -1.928521    0.525503
C      -1.434327   -0.570143    0.025513
C      -1.907180   -0.266248    1.468819
O      -2.806860    0.278464    2.020315
H       0.793715    1.780036   -0.022195
H       0.570972   -0.372811   -0.829075
H       1.298547   -1.334856    1.253475
H       0.804032    0.166892    2.083651
H      -0.840635   -1.981707    2.652603
H      -2.051620   -0.490168   -0.865616
