19

C       0.043121    1.474120    0.061139
C       0.082428   -0.015516   -0.031298
C      -0.039161   -0.759851   -1.149575
C      -0.225699   -0.276146   -2.466927
C      -0.396573    0.104632   -3.598113
C       0.139809   -2.246049   -0.864675
O       1.360495   -2.747148   -1.402417
C       0.048879   -2.318298    0.680705
C       0.293687   -0.880081    1.189846
H       0.970159    1.862173    0.502660
H      -0.094253    1.933939   -0.919840
H      -0.772368    1.802536    0.718076
H      -0.540610    0.440612   -4.594810
H      -0.631705   -2.854647   -1.345051
H       2.057505   -2.121278   -1.176326
H      -0.952723   -2.648362    0.971922
H       0.761441   -3.050378    1.067352
H       1.306615   -0.733452    1.591839
H      -0.388112   -0.603411    2.003115
