17

C      -0.136415    1.567114    0.012175
C       1.390243    1.515109   -0.269460
N       1.403213    0.146988    0.281011
C      -0.063410    0.047725    0.325720
C       2.244805   -0.850980   -0.091286
C       2.143996   -2.219972   -0.066812
C       3.404567   -2.631890   -0.561701
N       4.200422   -1.637271   -0.866272
O       3.445276   -0.477760   -0.560985
H      -0.400208    2.177350    0.876735
H      -0.765865    1.847628   -0.831646
H       1.655464    1.552134   -1.332618
H       2.021642    2.220745    0.277055
H      -0.461635   -0.279621    1.291145
H      -0.473014   -0.594625   -0.465243
H       1.315207   -2.822922    0.260272
H       3.763667   -3.641485   -0.711177
