18

C      -0.050765    1.558615    0.054892
C       1.489175    1.558253   -0.032603
C       2.171706    0.897096    1.216051
C       1.184485    0.135982    2.137855
C       1.499801   -1.180392    1.487912
C       2.394556   -0.449513    0.452352
C       1.462694    0.116700   -0.651678
C       0.022996    0.011393   -0.026340
N       0.186411   -0.568271    1.321228
H      -0.533310    1.980531    0.941951
H      -0.500326    1.989678   -0.843868
H       2.019934    2.401318   -0.476542
H       2.988818    1.413659    1.718586
H       0.921330    0.382969    3.160578
H       1.588529   -2.183472    1.888139
H       3.384317   -0.826313    0.205058
H       1.595986   -0.108201   -1.709741
H      -0.753556   -0.530915   -0.568340
