18

C      -0.676048    1.349426    0.189846
C       0.044415    0.027209    0.027727
C       0.863369   -0.201318   -1.267425
C       2.047837   -0.272976   -0.318366
C       3.232584   -1.193919   -0.331182
C       3.403170    0.312846   -0.496205
O       3.682880    0.853694   -1.754197
O       1.253294   -0.044921    0.840659
H      -0.019502    2.183455   -0.076160
H      -1.561910    1.382434   -0.454291
H      -1.001537    1.483592    1.226225
H      -0.621578   -0.807801    0.279516
H       0.635591   -1.117149   -1.815374
H       0.885997    0.643470   -1.958552
H       3.549080   -1.631132    0.610230
H       3.368894   -1.819249   -1.208551
H       3.818911    0.850646    0.356593
H       4.593721    0.634476   -1.977861
