13

O       0.078093    1.366608   -0.334269
C       0.033588    0.112221    0.300107
C      -1.359350   -0.493332    0.207025
O      -1.701971   -1.049687   -1.070138
C      -1.585887   -1.953879    0.024918
C      -0.476861   -2.883764    0.000962
N       0.392419   -3.644797   -0.002789
C      -2.422617    0.267647    0.841312
N      -3.255489    0.865072    1.373384
H      -0.044751    1.229795   -1.280570
H       0.751611   -0.603422   -0.120455
H       0.287327    0.278704    1.351191
H      -2.524185   -2.376028    0.378290
