13

O      -0.010758    0.216958   -0.707955
C      -0.016899    1.267577   -0.139016
C      -1.136936    2.204721    0.360669
C      -0.031488    3.223372    0.688845
C      -0.052164    4.681248    0.588654
O      -0.025946    4.012663    1.860127
C       1.091163    2.234221    0.330244
H      -1.888103    2.485434   -0.382491
H      -1.645728    1.819277    1.250919
H       0.857731    5.219748    0.326998
H      -0.982803    5.195371    0.352132
H       1.634078    1.862696    1.206140
H       1.814081    2.534446   -0.433033
