20

C       0.021100    1.641385   -0.187036
C       0.004645    0.122365   -0.002601
C       0.633034   -0.618395   -1.182939
C       0.620204   -2.136433   -1.004571
O       0.165295   -2.691515   -0.038444
N       1.198194   -2.809238   -2.093501
C       1.358343   -4.192387   -2.274452
C       2.037931   -4.531245   -3.594520
O       1.000456   -5.020372   -1.478663
H       1.043829    2.021411   -0.291072
H      -0.535110    1.942478   -1.082126
H      -0.433817    2.145518    0.670671
H       0.536258   -0.155483    0.913127
H      -1.021813   -0.233326    0.132540
H       0.107570   -0.372658   -2.116892
H       1.672734   -0.293863   -1.332947
H       1.542405   -2.223010   -2.839179
H       3.034115   -4.078947   -3.649125
H       2.129217   -5.613957   -3.669748
H       1.454212   -4.157061   -4.442584
