15

O       0.123849    1.286174    0.147820
C       0.081939   -0.049461    0.015767
N       0.082807   -0.728081   -1.105478
C       0.029925   -2.039970   -0.672040
C      -0.001286   -2.130886    0.673934
C      -0.058688   -3.543453    1.135531
O      -0.056537   -4.271284   -0.105479
C      -0.003849   -3.409446   -1.263971
N       0.032323   -0.826662    1.142073
H       0.154930    1.644503   -0.748284
H       0.806122   -3.856021    1.741430
H      -0.967707   -3.796167    1.703484
H      -0.885708   -3.599086   -1.892294
H       0.888331   -3.658768   -1.855784
H       0.024351   -0.485692    2.087784
