21

C      -0.051458    1.606602   -0.033252
C       0.024750    0.074555    0.035231
C       0.756449   -0.511026   -1.186829
O       2.137152   -0.180847   -1.179694
C       2.807627   -0.751037   -0.066991
C       2.246855   -0.217094    1.257819
C       0.743862   -0.421700    1.284213
C       0.023443   -0.592477    2.549543
O       0.328642   -1.727099    1.731321
H       0.938671    2.044301   -0.186111
H      -0.682423    1.919079   -0.871507
H      -0.477069    2.027587    0.883039
H      -0.989871   -0.340478    0.056662
H       0.630032   -1.605646   -1.200663
H       0.348862   -0.106167   -2.118263
H       2.711213   -1.848980   -0.089903
H       3.865454   -0.498499   -0.180374
H       2.706830   -0.736751    2.104167
H       2.480927    0.850020    1.347213
H       0.565192   -0.538324    3.493645
H      -1.033269   -0.332214    2.609694
