19

C      -0.368314    1.603879    0.349670
C      -0.118522    0.109937    0.202690
C       0.192859   -0.449403   -1.192515
C       1.516228    0.049859   -1.698082
C       1.496897   -1.000492   -0.604360
C       2.112260   -2.284341   -0.758277
N       2.622448   -3.315352   -0.884846
N       1.172076   -0.472098    0.712631
C       2.164707    0.328729    1.407101
H       0.392415    2.210433   -0.148767
H      -1.339496    1.854955   -0.088958
H      -0.398020    1.894256    1.404695
H      -0.948946   -0.437474    0.664048
H      -0.506193   -0.977038   -1.827148
H       1.797713   -0.314383   -2.680407
H       1.871643    1.049195   -1.468110
H       2.543830    1.196335    0.842082
H       1.744200    0.691392    2.349550
H       3.017945   -0.312279    1.650560
