18

C      -0.030155    1.496683    0.062200
C      -0.073793    0.006036   -0.008405
C      -0.054178   -0.795127   -1.080770
C       0.059173   -2.249458   -0.634472
C      -0.631234   -2.186195    0.743149
C       0.016968   -0.887278    1.224751
O       1.432908   -1.154175    1.480172
C       2.018059   -1.981920    0.575387
N       1.496130   -2.550963   -0.432080
H       0.882070    1.836761    0.568152
H      -0.052578    1.945458   -0.934442
H      -0.875340    1.896797    0.636593
H       0.002710   -0.476990   -2.115470
H      -0.358768   -2.979386   -1.328780
H      -1.712821   -2.063167    0.650867
H      -0.409451   -3.045249    1.381216
H      -0.361134   -0.465133    2.156571
H       3.070871   -2.117780    0.817102
