18

C       0.234042    1.513040    0.136690
O       1.079078    0.445952   -0.301787
C      -0.265135    0.134522    0.084896
C      -0.374083   -0.718487    1.319173
O      -1.740991   -0.894109    1.753754
C      -1.644544   -2.341085    1.698828
C      -0.229791   -2.233511    1.145122
C       0.477601   -2.977634    0.084011
N       0.888253   -3.084572    1.501483
H       0.497347    1.952681    1.097720
H      -0.061158    2.220271   -0.636324
H      -0.923129   -0.153852   -0.735095
H       0.260178   -0.300414    2.115443
H      -1.711780   -2.798210    2.693277
H      -2.405487   -2.775886    1.040457
H       0.041010   -3.881770   -0.332063
H       1.103267   -2.410343   -0.599958
H       1.720980   -2.523665    1.669241
