17

O       0.071303    0.081607   -0.722355
C       0.003537    1.171793   -0.235441
C      -1.141063    2.010739    0.353751
C      -0.100367    3.113444    0.725712
C       0.244867    3.247585    2.211287
C       1.382551    2.253669    2.491100
O       1.695204    1.833572    3.572867
C       2.066341    1.894909    1.162827
C       1.057153    2.256515    0.067299
H      -1.881827    2.308038   -0.394933
H      -1.671697    1.537046    1.186228
H      -0.296102    4.073250    0.248855
H       0.635091    4.248436    2.437498
H      -0.590941    3.073574    2.893648
H       2.978639    2.498587    1.081454
H       2.372735    0.846130    1.158002
H       1.520245    2.663764   -0.834230
