15

C      -0.102081    1.461961    0.091329
N      -0.062447    0.034853   -0.186419
C      -1.163696   -0.748706   -0.076090
C      -1.313634   -2.122548    0.004664
C      -2.740282   -2.352413    0.032838
C      -3.327708   -1.141547   -0.023019
O      -2.363858   -0.145792   -0.087497
C      -0.253168   -3.046071    0.053120
N       0.649486   -3.775263    0.094680
H       0.858318    1.895679   -0.192085
H      -0.883131    1.932708   -0.509189
H      -0.295647    1.687885    1.148812
H       0.805420   -0.445229   -0.004349
H      -3.229934   -3.310922    0.090980
H      -4.344859   -0.792421   -0.023763
