17

C      -0.001705    1.410678    0.056517
O       0.022303    0.000633    0.025642
C       0.617429   -0.560927   -1.067259
C       0.702278   -1.928967   -1.234914
C       0.219279   -3.038367   -0.365106
N       1.358813   -2.127029   -2.433193
C       1.681262   -0.930669   -3.010816
C       1.232851    0.076213   -2.183626
H       1.012384    1.834269    0.059116
H      -0.552615    1.826302   -0.798754
H      -0.509379    1.695035    0.980569
H      -0.517479   -3.678135   -0.868643
H       1.034308   -3.687883   -0.019435
H      -0.261440   -2.612332    0.518197
H       1.567039   -3.029896   -2.821228
H       2.199075   -0.885947   -3.954939
H       1.336347    1.133729   -2.362744
