20

C       0.079277    1.495589   -0.106562
C       0.042178   -0.046422   -0.129702
C       0.713826   -0.559776   -1.329950
N       1.255592   -0.963953   -2.267872
C       0.703335   -0.643274    1.122692
C      -0.031185   -0.641710    2.503193
C      -0.915236   -1.817493    1.991018
C       0.532046   -2.144539    1.515645
C       0.999695   -1.724197    2.940372
H       1.109542    1.858627   -0.052792
H      -0.383985    1.914954   -1.002943
H      -0.462240    1.862999    0.769292
H      -1.003415   -0.364453   -0.196418
H       1.740273   -0.291490    1.170968
H      -0.352757    0.228489    3.077670
H      -1.326436   -2.475883    2.760316
H      -1.670625   -1.604322    1.232705
H       0.862440   -3.009915    0.940759
H       2.039444   -1.402674    3.043669
H       0.695201   -2.376653    3.762033
