19

C       0.038476    1.538339   -0.112877
C       0.020150    0.043716    0.039474
O       0.411064   -0.586041   -1.165211
C       0.334216   -1.987866   -0.832282
C      -0.121129   -1.909245    0.612186
C       0.746445   -0.744580    1.220294
C      -0.027421   -0.321005    2.448913
C      -1.305129   -0.346302    2.047520
C      -1.221852   -0.783536    0.601951
H       1.043439    1.879474   -0.379764
H      -0.644250    1.846005   -0.910860
H      -0.264292    2.020314    0.818932
H      -0.382771   -2.488532   -1.493990
H       1.318233   -2.454872   -0.959605
H      -0.276706   -2.835950    1.165794
H       1.834941   -0.810451    1.253362
H       0.394097   -0.026900    3.399524
H      -2.204668   -0.078347    2.583120
H      -2.130623   -0.888939    0.007575
