23

C      -0.135351    1.491520    0.075434
C       0.017655    0.005203    0.100452
C       1.195255   -0.793025   -0.372794
C       0.666989   -0.989208    1.042004
C       1.527405   -0.828040    2.262764
C      -0.679539   -1.740804    0.971144
C      -0.699766   -3.171342    0.451349
C      -1.518664   -1.592150    2.235902
O      -1.171477   -0.785484   -0.032348
H       0.821253    1.980846    0.281339
H      -0.478421    1.826264   -0.910387
H      -0.866982    1.824876    0.818247
H       1.062666   -1.542293   -1.147613
H       2.141717   -0.260794   -0.414847
H       2.252294   -0.019040    2.124674
H       0.936515   -0.592648    3.153951
H       2.098552   -1.740759    2.473152
H      -0.315331   -3.860216    1.211311
H      -1.725665   -3.470331    0.212296
H      -0.096406   -3.282778   -0.451886
H      -1.521634   -0.555336    2.582620
H      -2.552387   -1.884597    2.027642
H      -1.139018   -2.228522    3.042682
