25

C      -0.032295    1.519153   -0.209149
C       0.041568    0.029860    0.148294
C       0.493444   -0.184592    1.597809
C      -1.303839   -0.645056   -0.117885
O      -1.177168   -2.037747    0.097871
C      -2.375124   -2.748175   -0.050494
C      -2.921214   -3.038427   -1.479959
C      -3.250997   -4.476927   -0.993030
C      -2.255317   -4.266691    0.181443
H       0.935439    2.005981   -0.053469
H      -0.318785    1.670439   -1.255509
H      -0.766929    2.039446    0.417259
H       0.772353   -0.451946   -0.515175
H      -0.194893    0.307567    2.296163
H       0.518077   -1.248857    1.842233
H       1.491257    0.233944    1.764698
H      -2.076506   -0.226127    0.552177
H      -1.629529   -0.445794   -1.151948
H      -3.162657   -2.305359    0.580898
H      -3.736469   -2.421414   -1.864853
H      -2.096801   -3.038409   -2.199472
H      -4.283507   -4.561985   -0.643411
H      -3.050501   -5.299791   -1.681501
H      -1.247121   -4.597773   -0.083033
H      -2.513946   -4.658570    1.167442
