17

C       0.026075    1.463624   -0.136172
C      -0.035035   -0.025618    0.048307
C      -1.257711   -0.821990   -0.373865
O      -1.121662   -2.109968    0.214691
C      -0.276562   -2.026029    1.366611
C       0.463187   -3.271212    1.534648
C       1.082664   -4.283565    1.716062
C       0.589856   -0.794608    1.127830
O       1.174346   -0.773414   -0.172318
H       0.960291    1.860140    0.267852
H      -0.021007    1.723358   -1.199250
H      -0.812828    1.954418    0.367802
H      -2.169146   -0.312069   -0.021468
H      -1.330111   -0.957903   -1.458100
H      -0.879919   -1.842023    2.273329
H       1.631930   -5.180996    1.860272
H       1.168355   -0.365137    1.940957
