14

N      -0.090929    0.892208    1.219354
C      -0.001378    0.132782    0.199989
N      -1.209501   -0.466404   -0.204180
C      -1.524485   -1.318414   -1.217425
N      -0.828110   -1.861891   -2.144471
C       0.538352   -1.671094   -2.322907
N       1.174742   -2.248289   -3.275080
C       1.420126   -0.811279   -1.476856
N       1.213145   -0.077482   -0.454545
H       0.833643    1.269421    1.422386
H      -1.972209   -0.187164    0.398914
H      -2.587791   -1.562099   -1.202808
H       0.511423   -2.816941   -3.809524
H       2.447112   -0.845653   -1.843083
