19

O      -0.287592    0.351387    0.372537
C      -0.023494    1.160531   -0.492610
N       1.222450    1.425906   -0.962053
C       2.422969    0.804723   -0.425517
C       3.468425    1.882307   -0.192039
C       5.000912    1.661224   -0.257008
C       4.809917    1.556133   -1.785026
N       3.876334    2.730669   -1.427601
C       5.045798    3.181563   -0.530924
H      -0.792282    1.776868   -0.999520
H       1.350886    2.152602   -1.650541
H       2.145947    0.333350    0.521180
H       2.775405    0.007937   -1.089565
H       3.124317    2.534561    0.618343
H       5.636244    1.062000    0.403527
H       5.645917    1.856434   -2.421870
H       4.304724    0.686477   -2.205343
H       4.745193    3.862298    0.269927
H       5.894049    3.575846   -1.095827
