14

C      -0.099705    1.429739    0.230579
C       1.296056    0.879973    0.008015
C       2.216449    0.643602    1.193963
N       1.760853   -0.342881    2.165824
C       0.728010   -1.029027    1.932603
O      -0.129940   -0.993230    0.880029
C       0.103362   -0.019335   -0.112274
H      -0.391062    1.653943    1.252024
H      -0.533962    2.080164   -0.520352
H       1.791293    1.159967   -0.916593
H       3.191934    0.303158    0.823914
H       2.412419    1.580283    1.732181
H       0.396286   -1.789527    2.636723
H      -0.213293   -0.397959   -1.076590
