16

C       0.045395    1.479605   -0.102317
C       0.006397   -0.008606    0.016553
O       0.590285   -0.827691   -1.054465
C       0.063768   -1.806612   -0.100894
C       0.604694   -0.987988    1.097149
N      -0.325445   -1.163624    2.195709
C      -1.587747   -1.050799    1.613557
O      -2.654357   -0.980991    2.170909
C      -1.238655   -0.981621    0.130561
H       1.079215    1.824627   -0.200519
H      -0.516927    1.811967   -0.979790
H      -0.395620    1.940919    0.786919
H       0.169696   -2.866266   -0.331126
H       1.665343   -0.983407    1.336598
H      -0.160252   -0.813086    3.126999
H      -2.034339   -0.959280   -0.608494
