18

N      -0.066407    1.267153    0.176335
C      -0.048971    0.017318   -0.023862
O       1.136774   -0.690927   -0.040317
C       1.307165   -1.738040   -0.970811
C       1.250318   -3.154185   -0.478258
C       0.118077   -2.587981   -1.312040
C      -1.207936   -2.169578   -0.736135
C      -1.446073   -2.002622    0.733932
C      -1.295597   -0.771136   -0.145013
H       0.891075    1.619443    0.238696
H       2.024322   -1.471735   -1.741819
H       1.911492   -3.880674   -0.937341
H       1.080373   -3.303716    0.581549
H       0.059709   -2.930972   -2.339602
H      -2.065523   -2.485217   -1.319911
H      -2.438000   -2.216990    1.114296
H      -0.643988   -2.217789    1.429980
H      -2.172227   -0.164984   -0.329584
