15

O      -0.042362   -0.016919    0.032970
C       0.017951    1.171093    0.099980
O      -1.085473    1.949812    0.360052
C      -0.740652    3.350839    0.550677
C       0.744685    3.311413    0.669254
C       1.709513    3.718144    1.481641
C       2.919447    2.835679    1.259556
O       2.458958    1.757055    0.428077
C       1.209649    2.121528   -0.109054
H      -1.098106    3.913933   -0.319698
H      -1.257252    3.710378    1.443281
H       1.664579    4.485780    2.243354
H       3.753035    3.360093    0.765985
H       3.300819    2.421515    2.201693
H       1.287475    2.303900   -1.196492
