19

C      -0.058615    1.508173    0.057662
C      -0.031282    0.017304   -0.018459
C      -0.012512   -0.762828   -1.101972
C       0.005294   -2.239567   -0.771770
C       0.291821   -2.220379    0.723611
C       0.447285   -3.379275    1.598735
O       1.601055   -2.658556    1.130897
C      -0.070716   -0.821267    1.252632
O       0.782116   -0.397514    2.293430
H       0.750529    1.868830    0.701831
H       0.040844    1.968545   -0.928827
H      -0.994249    1.863060    0.509560
H      -0.030949   -0.401093   -2.124808
H      -0.957991   -2.720438   -0.992216
H       0.776774   -2.803464   -1.307401
H       0.242477   -3.274959    2.663170
H       0.343331   -4.386117    1.197328
H      -1.090730   -0.816503    1.666617
H       1.613254   -0.875606    2.156051
