15

O      -0.037182    0.011692   -0.138074
C      -0.048663    1.188571   -0.052385
C      -1.089784    2.371087    0.094136
C      -0.026692    2.986645    1.051213
C       1.026282    2.397028    0.047430
C       0.596262    3.074726   -1.249150
C      -0.747904    3.058747   -1.215390
C       2.411413    2.216396    0.363651
C       3.568267    2.038523    0.639836
H      -2.127215    2.214278    0.375958
H      -0.030585    4.076656    1.121496
H       0.012841    2.512875    2.036211
H       1.270328    3.366352   -2.040811
H      -1.451778    3.335301   -1.986705
H       4.590070    1.881207    0.882060
