16

C       0.053913   -1.225093    0.017524
C       0.032483   -0.024129    0.037136
C      -0.005741    1.431563    0.039929
C      -0.712563    2.062671    1.257231
N      -0.071206    1.825094    2.553724
C       0.171807    3.101248    1.851367
C       1.466680    3.116447    1.060890
O       2.210732    1.898372    1.122205
C       1.377946    2.108861   -0.009251
H       0.083463   -2.286370    0.016235
H      -0.547134    1.772788   -0.854332
H      -1.791741    2.169333    1.213003
H      -0.753908    1.972130    3.293783
H      -0.210584    4.030050    2.259817
H       2.049635    4.029713    0.981639
H       1.890645    2.178600   -0.966135
