17

C       0.822062    0.884537   -0.171065
O      -0.104430   -0.016230   -0.775713
C      -0.507018    0.658613    0.425554
C      -0.672002   -0.206191    1.616534
N      -1.391490    0.103565    2.635214
C      -1.341396   -1.041448    3.520039
C      -1.932749   -2.330754    2.993250
C      -0.445895   -2.090155    2.862273
N       0.020023   -1.406502    1.681919
H       1.692690    0.421727    0.288159
H       1.004395    1.806530   -0.720206
H      -1.274966    1.417954    0.305677
H      -1.356307   -0.836880    4.583617
H      -2.233442   -3.064229    3.733098
H      -2.556742   -2.282559    2.106683
H       0.272482   -2.713050    3.382136
H       0.192590   -1.902313    0.819011
