19

O      -0.133656    1.378242    0.101519
C       0.021744    0.001457    0.070596
C       0.835351   -0.785883   -1.007710
C       0.705340   -1.928511    0.043214
C       0.815647   -0.825545    1.135404
C      -0.813124   -2.214284    0.037974
C      -1.300915   -0.756298    0.038690
C      -2.570993   -0.230011    0.531272
O      -2.304416   -0.342745   -0.877881
H       0.736058    1.787846    0.068139
H       0.383166   -0.922559   -1.993171
H       1.862078   -0.420837   -1.099978
H       1.378226   -2.783698    0.032847
H       1.837081   -0.455820    1.261719
H       0.350246   -1.003638    2.109189
H      -1.152646   -2.736714   -0.860706
H      -1.139375   -2.779036    0.916368
H      -3.327291   -0.912604    0.917959
H      -2.617010    0.789474    0.909015
