21

C       0.012875    1.542315    0.124921
C       0.007684    0.009446    0.075446
C       0.339015   -0.588932    1.449834
C      -1.334635   -0.518380   -0.470938
O      -1.660351    0.074558   -1.731225
C      -1.377488   -2.031927   -0.571079
C      -2.201523   -2.837571    0.366465
N      -2.610630   -2.680642   -1.036085
H       0.998471    1.920214    0.414761
H      -0.254330    1.965758   -0.845178
H      -0.712680    1.908154    0.861681
H       0.786013   -0.313606   -0.634403
H       0.411922   -1.679347    1.420230
H       1.292550   -0.198144    1.818844
H      -0.430426   -0.325319    2.185420
H      -2.142685   -0.184597    0.195312
H      -1.059911   -0.290216   -2.391372
H      -0.472284   -2.484600   -0.978984
H      -1.890123   -3.840478    0.645340
H      -2.752374   -2.305896    1.138602
H      -3.341499   -1.976940   -1.119873
