21

C       0.120780    1.400874   -0.074559
O       0.058944   -0.005769   -0.032747
C       0.565800   -0.560238    1.168213
C       0.543767   -2.080903    1.006810
O       1.287555   -2.414331   -0.169861
C       1.172682   -2.816306    2.214208
C       0.251117   -4.022620    2.524287
C      -1.004641   -3.708811    1.749232
C      -0.859398   -2.657877    0.946730
H       1.155389    1.764707    0.021287
H      -0.279701    1.718655   -1.040280
H      -0.480166    1.856507    0.727127
H       1.600605   -0.219679    1.337984
H      -0.047253   -0.249821    2.029151
H       0.990469   -1.796293   -0.849927
H       2.196848   -3.105457    1.971692
H       1.212740   -2.144408    3.077996
H       0.687121   -4.972947    2.189569
H       0.063912   -4.134953    3.598563
H      -1.904163   -4.309883    1.835202
H      -1.607594   -2.256701    0.273041
