11

F       0.001763    0.020499    0.003396
C      -0.016293    1.351402    0.010635
C      -1.228496    2.024298    0.030417
C      -1.182774    3.415745    0.037121
N      -0.053983    4.130087    0.025756
C       1.093769    3.446788    0.006789
C       1.177212    2.057105   -0.001641
H      -2.165068    1.480667    0.040105
H      -2.109726    3.983666    0.052529
H       2.004972    4.039778   -0.002308
H       2.128180    1.539208   -0.017108
