18

C       0.130526    1.447660   -0.038207
C      -0.145499   -0.002007    0.343033
N      -1.299843   -0.518619   -0.407273
C      -1.628511   -1.853757   -0.241123
C      -2.795187   -2.481880    0.089424
O      -3.936425   -1.824574    0.483232
C      -2.541495   -3.892568    0.011044
C      -1.238735   -4.014393   -0.346552
O      -0.668352   -2.780597   -0.505630
H       1.003901    1.826892    0.500191
H       0.314541    1.536516   -1.112580
H      -0.719678    2.092018    0.214256
H       0.714449   -0.628277    0.089383
H      -0.294969   -0.088077    1.431935
H      -2.128753    0.044391   -0.253636
H      -4.683088   -2.173049   -0.014359
H      -3.235095   -4.694086    0.213689
H      -0.584333   -4.853128   -0.510255
