17

C       0.216424    1.567881    0.048694
C       0.062107    0.055857    0.020744
C       0.947213   -0.778919   -0.965351
C       1.416476   -1.683905    0.209249
C       2.673350   -1.170940    0.924492
O       1.900985   -0.224775    1.702311
C       0.654915   -0.757065    1.199847
H       1.250262    1.841223    0.277453
H      -0.054401    2.008093   -0.916990
H      -0.424618    2.019024    0.814129
H      -0.992235   -0.217424   -0.105245
H       0.385361   -1.296659   -1.745823
H       1.757036   -0.217853   -1.442625
H       1.268945   -2.759228    0.123038
H       3.164052   -1.907463    1.574860
H       3.433019   -0.680559    0.302291
H      -0.007278   -1.078541    2.009461
