15

C      -0.285988   -1.209211    0.287671
C      -0.104961   -0.031368    0.132577
C       0.051583    1.408625   -0.043425
N      -0.654622    2.175928    1.004920
C       0.319891    2.584769    1.905915
N       1.539119    2.524546    1.540564
C       1.521303    1.972168    0.166096
C       2.590124    1.018796   -0.086995
C       3.477166    0.244710   -0.322666
H      -0.422396   -2.253983    0.422288
H      -0.313299    1.693783   -1.034042
H      -1.492332    1.752781    1.381474
H       0.007257    2.985357    2.866170
H       1.640839    2.818313   -0.525184
H       4.261438   -0.443651   -0.519098
