15

O       0.023247    0.023458   -0.337978
C       0.013120    1.179191   -0.058041
C      -1.111885    2.185024    0.393784
C       0.019855    3.139158    0.807419
O       0.653016    2.886634    2.105590
C       1.757304    3.070850    1.186904
C       1.054659    4.217061    0.341424
C       1.300332    3.482811   -0.995417
C       1.074624    2.318768    0.003661
H      -1.691307    2.534879   -0.466512
H      -1.793505    1.857230    1.181061
H       2.776724    3.022531    1.576819
H       1.060412    5.287203    0.559850
H       0.533688    3.621641   -1.762658
H       2.296107    3.562541   -1.437393
