18

O       0.045360    1.436282   -0.109396
C       0.031293    0.025583    0.009419
C      -1.380308   -0.476027    0.058542
C      -2.434785    0.341541    0.073440
N      -3.750101   -0.141954    0.108489
C      -4.098182   -1.445754    0.382399
O      -5.251954   -1.823602    0.362190
C      -2.916860   -2.327391    0.772147
C      -1.611356   -1.967988    0.045368
H       0.958331    1.732680   -0.066736
H       0.552839   -0.451928   -0.840808
H       0.569218   -0.302084    0.917747
H      -2.332613    1.417801    0.046473
H      -4.519959    0.485729   -0.066428
H      -2.779770   -2.192298    1.853806
H      -3.210545   -3.366012    0.611055
H      -1.649235   -2.327259   -0.994416
H      -0.773910   -2.498500    0.514069
