19

O      -0.560545    0.628661    0.404264
C       0.100732    1.629263    0.297205
C       1.482369    1.691355   -0.322246
C       1.543003    2.728425   -1.429101
N       1.525411    4.149733   -1.028607
C       2.722607    3.603628   -1.682979
C       3.972446    3.565080   -0.850755
C       4.546464    4.833023   -0.334776
N       3.909232    3.875026    0.584017
H      -0.277549    2.612704    0.656115
H       2.196529    1.954318    0.466779
H       1.740921    0.699489   -0.704574
H       0.953808    2.469969   -2.307771
H       0.971069    4.707355   -1.670584
H       2.888015    3.870550   -2.726313
H       4.654026    2.754112   -1.101075
H       5.621470    4.940391   -0.223089
H       4.013234    5.752779   -0.562148
H       2.965345    4.211496    0.776014
