17

C      -0.122131    1.399279    0.272663
C       0.165473   -0.042534    0.022586
O      -0.677464   -1.016718    0.630238
C       0.726465   -1.116881    0.913100
C       1.365191   -1.849613   -0.267900
C       0.759789   -0.747462   -1.219587
O      -0.157591   -1.137149   -2.199119
C       1.195235   -0.944478    2.304312
O       0.543628   -0.450166    3.191173
H       0.728625    2.021211   -0.021485
H      -0.991727    1.717701   -0.312614
H      -0.337327    1.558119    1.332121
H       2.457894   -1.844474   -0.254930
H       1.001084   -2.866222   -0.433113
H       1.534481   -0.158895   -1.716872
H      -0.890521   -1.560225   -1.733187
H       2.243267   -1.282669    2.465425
