21

C      -0.011709    1.567558    0.000820
C      -0.021163    0.036109   -0.008063
O      -1.372326   -0.442625    0.060711
C       0.671041   -0.512675   -1.271732
C       0.692523   -2.052081   -1.301830
C       1.287617   -2.634971   -0.026982
O       2.144568   -3.488242   -0.037281
C       0.705091   -2.064509    1.257439
C       0.671679   -0.524256    1.243650
H       1.009509    1.961698   -0.000135
H      -0.519781    1.963797   -0.886751
H      -0.529740    1.945403    0.886899
H      -1.855130   -0.074861   -0.687310
H       0.160601   -0.130327   -2.165214
H       1.696146   -0.124237   -1.313170
H      -0.341841   -2.411841   -1.371912
H       1.248721   -2.436311   -2.159780
H      -0.325369   -2.431096    1.342864
H       1.276569   -2.449494    2.105099
H       1.693517   -0.129144    1.281646
H       0.150912   -0.157779    2.134128
