25

C      -0.154945    1.374612    0.064178
O      -0.110271   -0.027779   -0.020135
C       0.697519   -0.491055   -1.084469
C       0.641650   -2.005153   -1.093024
C      -0.672497   -2.710907   -1.513966
C       0.177155   -3.786686   -2.239877
C       1.409540   -2.824896   -2.192391
C       1.585330   -2.075631   -3.518262
C       2.733054   -3.443217   -1.750316
H       0.843772    1.807988    0.236481
H      -0.568164    1.828528   -0.851248
H      -0.800610    1.633585    0.907265
H       0.335062   -0.076385   -2.040333
H       1.737533   -0.139890   -0.955357
H       0.950984   -2.356498   -0.102288
H      -1.336402   -3.045533   -0.714804
H      -1.257823   -2.102097   -2.210199
H       0.332214   -4.675907   -1.621305
H      -0.154566   -4.109870   -3.230773
H       0.643978   -1.650228   -3.880267
H       2.310743   -1.258771   -3.429647
H       1.953480   -2.760673   -4.290609
H       3.115563   -4.139136   -2.506630
H       3.500141   -2.675320   -1.592552
H       2.618004   -3.998093   -0.813196
