20

C      -0.119162    1.349923   -0.059996
O       0.019624   -0.053012    0.039162
C       0.658985   -0.514369    1.178097
C       2.104311   -0.108062    1.676163
N       1.648372   -0.733660    2.989069
C       0.285798   -0.165866    2.643362
C       1.544549   -2.153763    2.522251
C       0.214861   -2.831842    2.338288
C       0.820891   -2.047366    1.198653
H       0.854129    1.860221   -0.063297
H      -0.623459    1.551035   -1.007711
H      -0.727947    1.762812    0.756336
H       2.968738   -0.591225    1.214544
H       2.275858    0.964017    1.802121
H       0.293848    0.905220    2.852213
H      -0.573244   -0.619263    3.135852
H       2.440850   -2.738801    2.687758
H       0.282088   -3.910978    2.233670
H      -0.686828   -2.514021    2.846672
H       1.127680   -2.531322    0.279474
