23

C      -0.096828   -1.241694   -0.169026
C      -0.077150   -0.041846   -0.096083
C      -0.017617    1.411987   -0.006187
C       1.426952    1.954126    0.042201
C       1.501062    3.480862    0.102060
C       0.903499    4.116449    1.379705
C       1.618731    5.486999    1.552814
C       2.756665    5.510081    0.496986
C       2.933477    4.042491    0.077025
H      -0.127129   -2.300827   -0.233712
H      -0.541949    1.851924   -0.865257
H      -0.566414    1.742395    0.884460
H       1.937829    1.526664    0.914218
H       1.965075    1.590196   -0.840849
H       0.967368    3.888285   -0.770301
H      -0.184092    4.219277    1.328715
H       1.117528    3.466807    2.237513
H       0.930442    6.324895    1.411272
H       2.020283    5.584727    2.565687
H       2.451474    6.104074   -0.372115
H       3.678012    5.958515    0.878796
H       3.547278    3.506136    0.813744
H       3.421005    3.927371   -0.896086
