15

C       0.040548    1.378004    0.006314
O      -0.048330   -0.057161    0.003689
C      -1.266942   -0.578764    0.011623
N      -2.348204    0.150284    0.021516
C      -3.504778   -0.588964    0.028451
N      -3.645948   -1.877633    0.026460
C      -2.491396   -2.653438    0.015916
N      -2.410920   -3.923309    0.012324
N      -1.279544   -1.923735    0.008499
H       1.108183    1.594987   -0.002074
H      -0.446953    1.791958   -0.878249
H      -0.432056    1.787751    0.900879
H      -4.416278    0.006570    0.036732
H      -3.354540   -4.307269    0.018539
H      -0.415391   -2.447707    0.000725
