21

C      -0.172469    1.437161    0.136029
C       0.044894   -0.081445   -0.026473
C       0.797413   -0.407847   -1.314660
O      -0.006052    0.033278   -2.402115
C       0.775751   -0.642592    1.187605
O       1.936615   -1.001460    1.127904
C       0.003201   -0.718789    2.462269
C       0.348464   -1.856211    3.414371
C       0.762620   -0.468644    3.758627
H       0.787825    1.953592    0.240497
H      -0.677085    1.826193   -0.750268
H      -0.779351    1.669624    1.015488
H      -0.942907   -0.560253   -0.077461
H       1.776531    0.090862   -1.303066
H       0.985766   -1.489566   -1.367885
H       0.488579   -0.107394   -3.214136
H      -1.032236   -0.401074    2.422172
H      -0.471871   -2.311477    3.957103
H       1.118952   -2.534782    3.066912
H       1.810806   -0.217823    3.643234
H       0.235729    0.059305    4.545015
