16

C      -0.299010    1.493829   -0.094023
C       0.100837    0.035744   -0.068137
O       1.337796   -0.218149   -0.769869
C       1.967903   -0.783979    0.387091
C       0.692826   -0.572201    1.255265
C       0.812921    0.280626    2.410332
C       0.921648    0.997841    3.378224
C       1.044412    1.806218    4.470773
N       1.148575    2.494926    5.400847
H       0.480394    2.126901    0.337926
H      -0.464771    1.805533   -1.129590
H      -1.227150    1.649358    0.465490
H      -0.704646   -0.591954   -0.470445
H       2.246734   -1.833949    0.243026
H       2.845850   -0.212846    0.706818
H       0.206920   -1.508973    1.539871
