25

C      -0.088486    1.594332   -0.001283
C       0.009686    0.064630    0.020667
C       0.797672   -0.530781   -1.172612
C       1.549776   -1.780132   -0.630430
C       0.731639   -3.066747   -0.876568
C       2.939382   -1.928983   -1.270243
C       1.609286   -1.478620    0.870655
C       2.477356   -2.259291    1.810125
C       0.766572   -0.498687    1.201327
H       0.908618    2.048685    0.005618
H      -0.612223    1.943483   -0.897885
H      -0.634556    1.970878    0.870573
H      -1.017905   -0.332304    0.028035
H       0.160735   -0.767611   -2.030934
H       1.532074    0.210164   -1.511315
H       0.665248   -3.283373   -1.948872
H       1.192525   -3.935253   -0.393489
H      -0.286256   -2.968406   -0.486216
H       3.566252   -1.055318   -1.062439
H       3.463166   -2.817077   -0.900140
H       2.853530   -2.029002   -2.358138
H       3.540441   -2.147903    1.563879
H       2.335879   -1.933315    2.844231
H       2.259444   -3.333944    1.763884
H       0.601267   -0.146128    2.215909
