21

O       0.079646    1.454247    0.087881
C       0.013488    0.028982   -0.030770
C       0.804186   -0.472609   -1.256425
C       2.233076   -0.660319   -0.727945
C       2.008391   -1.315191    0.647858
C       0.700860   -0.678111    1.182969
C      -1.476233   -0.256685   -0.068464
C      -2.239154   -0.482909   -1.298601
O      -1.871307   -1.574468   -0.444584
H       0.998399    1.699905    0.235024
H       0.398091   -1.442065   -1.567451
H       0.723940    0.226467   -2.092460
H       2.864192   -1.257571   -1.391366
H       2.728372    0.314227   -0.615202
H       1.870662   -2.393681    0.516728
H       2.853962   -1.182319    1.328209
H       0.888798    0.070968    1.958411
H       0.040932   -1.431089    1.621787
H      -2.010405    0.147493    0.792799
H      -3.302324   -0.249625   -1.321307
H      -1.736763   -0.458865   -2.263006
