22

C      -0.826458    1.069437   -0.000852
C       0.015480   -0.198344    0.146834
C       0.887984   -0.596072   -1.054307
C       0.311928   -0.974197   -2.387666
C       1.101926    0.304091   -2.249359
C       2.056437   -1.380094   -0.449156
N       2.247055   -0.909677    0.936587
C       2.315486    0.556522    1.045670
C       1.029709   -0.149393    1.285448
H      -0.196793    1.951891   -0.148588
H      -1.517945    0.997337   -0.847762
H      -1.429106    1.236745    0.897631
H      -0.665609   -1.035957    0.357743
H       0.761605   -1.805473   -2.922103
H      -0.762462   -0.892953   -2.523396
H       0.561246    1.242380   -2.306020
H       2.096397    0.340428   -2.683493
H       1.816284   -2.449375   -0.395220
H       2.984835   -1.276663   -1.021333
H       2.898183    0.916264    1.888663
H       2.422193    1.142695    0.136744
H       0.661481   -0.266934    2.301475
