21

C      -0.017359    1.560933    0.221961
C      -0.024230    0.036542    0.011870
C       0.869132   -0.663979    1.043633
C      -1.444578   -0.482324   -0.005694
C      -2.241398   -0.905483    1.175697
C      -1.963509   -1.953133    0.096324
C      -2.840657   -1.693308   -1.083931
O      -3.468312   -2.400277   -1.821723
C      -2.428775   -0.198878   -1.161157
H       1.002295    1.955572    0.168752
H      -0.616524    2.073506   -0.536976
H      -0.428034    1.819210    1.204418
H       0.398419   -0.164511   -0.983328
H       0.550742   -0.442361    2.068113
H       0.865011   -1.750518    0.912147
H       1.903157   -0.320149    0.943959
H      -1.696936   -1.090381    2.095625
H      -3.252551   -0.536665    1.327814
H      -1.450686   -2.876563    0.336915
H      -3.200021    0.556857   -0.985223
H      -1.941233    0.001447   -2.120634
