19

C      -0.309350    1.555688    0.065251
C      -0.007657    0.067482    0.068336
C      -1.153872   -0.764524   -0.478061
O       1.226676   -0.192521   -0.732178
C       1.868073   -0.768135    0.319872
O       2.944991   -1.278958    0.344486
C       0.722836   -0.531110    1.320642
C       1.058333    0.380561    2.492716
O       0.109357   -1.725649    1.763616
H       0.564284    2.148059    0.343871
H      -0.623670    1.868193   -0.934785
H      -1.122481    1.782182    0.762034
H      -1.400465   -0.431780   -1.490583
H      -0.896196   -1.823110   -0.500476
H      -2.040293   -0.644268    0.151948
H       1.541304    1.308735    2.178737
H       0.150140    0.621746    3.052672
H       1.750152   -0.138071    3.164611
H       0.779593   -2.244305    2.223506
