18

O       0.873244    1.384135   -0.711924
C       0.020710    0.441783   -0.076463
C      -0.051846   -0.846114   -0.905338
O      -0.517026   -0.525683   -2.214018
C       0.414078   -0.382076   -3.181395
N       0.103445    0.173606   -4.271019
C       0.576590    0.218463    1.315624
C       0.134693   -0.863025    2.202750
O       1.399946   -0.930004    1.540700
H       0.423146    1.702096   -1.502292
H      -0.995141    0.856279    0.020418
H       0.936415   -1.314919   -0.940917
H      -0.766552   -1.556793   -0.481928
H       1.392069   -0.800443   -2.910505
H       0.900585    0.163562   -4.903953
H       0.954506    1.135228    1.767545
H       0.176850   -0.719233    3.281146
H      -0.609444   -1.582528    1.864943
