19

C      -0.248822    1.388527    0.292832
C      -0.009161    0.016891   -0.340596
N      -1.224577   -0.771593   -0.458133
C      -1.435237   -1.900366    0.257037
O      -0.677843   -2.430951    1.022850
O      -2.751460   -2.329929    0.043431
C      -2.986427   -3.664331   -0.184760
C      -4.356738   -4.034931    0.311829
N      -2.121537   -4.370873   -0.771279
H       0.689147    1.949661    0.349820
H      -0.957175    1.981381   -0.296255
H      -0.650993    1.284369    1.304622
H       0.442296    0.131113   -1.333655
H       0.678160   -0.576074    0.266111
H      -1.968905   -0.461917   -1.060824
H      -4.614273   -5.056322    0.027302
H      -4.392808   -3.943899    1.402198
H      -5.105478   -3.348224   -0.094766
H      -2.452170   -5.327850   -0.877463
