17

C       0.024872    1.426041   -0.015881
N       0.038185   -0.015067    0.070524
N       0.177770   -0.779952   -1.081171
N       0.152913   -2.036973   -0.732882
C       0.028533   -2.108724    0.610952
C      -0.045485   -0.842283    1.122620
N      -0.303584   -0.766771    2.486645
C      -0.057541   -2.171903    2.966753
C      -0.169890   -3.109347    1.711663
H       0.906115    1.863254    0.465340
H       0.032654    1.683650   -1.075309
H      -0.877299    1.832713    0.451071
H       0.222223   -0.073414    3.004679
H       0.948891   -2.248347    3.396087
H      -0.780531   -2.425557    3.745056
H      -1.157814   -3.582884    1.663542
H       0.573488   -3.910354    1.750215
