21

C       0.012681    1.688482    0.018002
C       1.528078    1.360858    0.044516
C       1.134620    0.102920    0.904133
C      -0.080407    0.131426   -0.050013
O      -1.281998   -0.565769    0.034861
C      -1.737192   -0.810423   -1.316049
C      -0.677119   -0.223143   -2.294273
C       0.561579   -0.220661   -1.397674
C       1.728123    0.803516   -1.394665
H      -0.362527    2.074162    0.968233
H      -0.372240    2.284308   -0.814506
H       2.257906    2.078714    0.416024
H       1.783742   -0.777318    0.880071
H       0.898913    0.379870    1.933779
H      -1.845542   -1.894338   -1.444859
H      -2.723668   -0.353326   -1.450246
H      -0.583288   -0.831618   -3.197012
H      -0.953149    0.790683   -2.600852
H       0.952092   -1.243841   -1.345394
H       1.622835    1.594445   -2.144259
H       2.701182    0.327565   -1.543848
