11

O       0.065213   -0.008033    0.002658
C      -0.040530    1.177025    0.009705
N      -1.163610    1.982629    0.029425
C      -0.769835    3.325843    0.031569
C       0.579569    3.289968    0.012421
O       1.144767    4.477530    0.010411
N       0.065105    5.416182    0.030459
C      -1.053406    4.704812    0.042258
O       1.099890    2.056187   -0.001560
H      -2.087080    1.587136    0.042606
H      -1.993178    5.236304    0.058115
