19

C      -0.018202    1.547864    0.011511
C      -0.001722    0.040623   -0.000860
C       0.717317   -0.821639   -1.101761
C      -0.240506   -1.969880   -0.635764
C       0.255679   -2.211503    0.798099
O       1.478199   -2.926770    0.749367
C       0.410191   -0.724732    1.281688
C      -1.225303   -0.805846   -0.410886
O      -2.377747   -0.588771   -0.643041
H       0.980440    1.956028    0.201511
H      -0.372529    1.946115   -0.944254
H      -0.686670    1.922042    0.794216
H       0.511434   -0.475267   -2.115963
H       1.781017   -1.012709   -0.954864
H      -0.477107   -2.838183   -1.245344
H      -0.485756   -2.761314    1.392958
H       1.807676   -3.016306    1.649650
H       1.450712   -0.520333    1.554521
H      -0.229287   -0.482373    2.135970
