16

C      -0.019520    1.531630    0.007886
C       0.000243    0.026239    0.013064
C      -0.085181   -0.709296   -1.173282
N      -0.074180   -2.037736   -1.251292
C       0.026692   -2.728311   -0.103154
C       0.118262   -2.094544    1.144724
C       0.104348   -0.709912    1.195452
C       0.038699   -4.156391   -0.185388
C       0.051678   -5.359339   -0.218982
H       0.894840    1.944386    0.448632
H      -0.106721    1.922342   -1.009264
H      -0.861427    1.921860    0.590620
H      -0.168051   -0.182486   -2.122751
H       0.198062   -2.690952    2.045788
H       0.174170   -0.199529    2.151866
H       0.061726   -6.420130   -0.266956
