21

C      -1.291357    1.917527   -0.393395
O      -1.143142    0.874362    0.539944
C      -1.268053   -0.434722   -0.008494
C      -0.074201   -0.831472   -0.879407
C      -1.576491   -1.331486    1.181669
N      -1.281269   -2.768047    1.100257
C      -0.631797   -1.960698    2.148224
C       0.875566   -1.860749    2.152938
H      -1.289989    2.855341    0.168518
H      -0.472389    1.951327   -1.126643
H      -2.242106    1.838228   -0.945326
H      -2.169676   -0.459253   -0.647929
H      -0.082286   -1.910556   -1.048225
H      -0.118004   -0.330267   -1.850444
H       0.865841   -0.552691   -0.397661
H      -2.530993   -1.048733    1.625767
H      -2.047176   -3.320047    1.474484
H      -1.051863   -2.056504    3.150309
H       1.290462   -1.976086    1.152097
H       1.198970   -0.896076    2.557876
H       1.301657   -2.649632    2.782777
