20

C       0.767306    1.172726    0.190092
N      -0.081997   -0.003943    0.028794
C      -0.901546   -0.336930    1.071566
O      -0.941713    0.252610    2.133926
C      -0.033002   -0.718576   -1.268052
C       1.414690   -1.195968   -1.537840
C      -0.966030   -1.947517   -1.312286
C      -0.447468    0.204748   -2.342445
C      -0.782596    0.940419   -3.231759
H       1.807864    0.898527    0.395981
H       0.731771    1.785579   -0.714327
H       0.385411    1.738837    1.038716
H      -1.538674   -1.208585    0.868166
H       1.731205   -1.875287   -0.740734
H       1.460330   -1.722873   -2.494060
H       2.110875   -0.357073   -1.582928
H      -2.014562   -1.672895   -1.183357
H      -0.862314   -2.412568   -2.294957
H      -0.687013   -2.683978   -0.553806
H      -1.085304    1.595537   -4.011425
