18

C       0.182592    1.603868    0.041769
C       0.014296    0.075659    0.023065
C       0.708389   -0.592531   -1.187441
O       0.933953    0.245900   -2.289389
C       2.034343   -1.119755   -0.608926
O       2.998898   -1.334434   -1.323721
C       1.870428   -1.231132    0.821921
C       0.725557   -0.589008    1.192402
N       0.198496   -0.486856    2.433464
H       1.240771    1.877870    0.034109
H      -0.281802    2.039983   -0.844350
H      -0.281090    2.044451    0.930795
H      -1.055930   -0.162902    0.056787
H       0.114567   -1.472219   -1.489062
H       1.815636   -0.008107   -2.606793
H       2.586907   -1.697208    1.485687
H       0.719808   -0.801486    3.234722
H      -0.544054    0.167688    2.609937
