14

C      -0.195660    1.476099    0.121090
C       0.273826    0.044365   -0.131324
N       0.952230   -0.519467    1.025520
C       0.713366   -1.812885    1.432418
N       1.577131   -2.250802    2.435632
O      -0.152177   -2.525720    0.959382
H       0.646387    2.140003    0.348466
H      -0.700002    1.874138   -0.764958
H      -0.892265    1.514099    0.963586
H      -0.569967   -0.617758   -0.334462
H       0.926631    0.013437   -1.015680
H       1.836397   -0.109478    1.282963
H       1.900880   -1.560796    3.097820
H       1.244490   -3.098195    2.871184
