25

C       0.022046    1.377177   -0.435718
O      -0.028820    0.112930    0.182888
C      -1.295627   -0.506369    0.094195
C      -1.552768   -1.213223   -1.269050
C      -1.075830   -2.546877   -0.633839
C      -1.258122   -1.906935    0.773645
C      -0.231798   -2.184755    1.871222
C      -0.494062   -1.316731    3.109575
C      -0.215875   -3.676890    2.230268
H       1.030370    1.771804   -0.287704
H      -0.179338    1.321801   -1.515897
H      -0.703276    2.075337    0.011651
H      -2.072640    0.192398    0.438591
H      -2.615035   -1.225754   -1.529142
H      -0.987918   -0.833887   -2.123974
H      -1.654471   -3.445566   -0.858952
H      -0.022347   -2.746956   -0.850330
H      -2.263565   -2.131869    1.152949
H       0.753886   -1.913797    1.473876
H      -1.484676   -1.522928    3.533838
H       0.246493   -1.514485    3.892096
H      -0.443200   -0.253744    2.858987
H      -1.181665   -3.992561    2.644022
H      -0.009880   -4.300794    1.354416
H       0.551525   -3.892143    2.981375
