18

C      -0.216840    1.301783   -0.002452
O       0.137076   -0.067036    0.024726
C       0.720119   -0.544073   -1.177784
C       1.294073   -1.951072   -0.885566
C       0.377810   -2.892056   -1.625158
C      -0.515959   -2.248211   -2.388111
C      -0.320187   -0.805656   -2.270500
N      -0.850102    0.159247   -2.922921
O      -1.801162   -0.304214   -3.848079
H       0.662170    1.936789   -0.196521
H      -0.973137    1.518177   -0.765659
H      -0.616732    1.541487    0.985934
H       1.485021    0.164556   -1.524441
H       2.329697   -2.051619   -1.232868
H       1.299332   -2.124871    0.194933
H       0.465925   -3.969853   -1.544963
H      -1.266940   -2.693547   -3.024308
H      -2.094779    0.512923   -4.264202
