18

O      -0.616816    0.297380    0.116958
C      -0.083041    1.375076    0.133945
C       1.345262    1.637659   -0.308761
C       1.405417    2.763109   -1.326325
C       1.442162    4.213425   -0.895610
C       2.640691    3.601702   -1.572484
C       3.941017    3.375565   -0.815062
C       4.773508    4.580163   -0.786879
N       5.422440    5.535957   -0.774904
H      -0.625699    2.283017    0.484011
H       1.911562    1.906153    0.593470
H       1.758470    0.703181   -0.701129
H       0.827692    2.556126   -2.223499
H       0.851789    4.942166   -1.438466
H       1.523227    4.415632    0.168385
H       2.800839    3.889969   -2.606784
H       3.751693    3.072485    0.219728
H       4.520716    2.567096   -1.276704
