19

C      -0.202906    1.417841   -0.353377
C       0.034392   -0.038265    0.025967
C       1.425369   -0.649675   -0.255739
O       1.575087   -1.067431    1.119655
C       0.334488   -0.431321    1.500572
C       0.574233    0.674626    2.514329
O       0.966247    0.111400    3.769764
C       2.287271   -0.090364    3.975471
O       2.704721   -0.607918    4.966408
H       0.596668    2.074388    0.004349
H      -0.247148    1.522165   -1.442545
H      -1.151491    1.788836    0.048501
H      -0.769625   -0.656734   -0.380606
H       1.458066   -1.500408   -0.945055
H       2.196192    0.075647   -0.549545
H      -0.359642   -1.159733    1.937624
H       1.341449    1.371429    2.157089
H      -0.344567    1.235848    2.707025
H       2.913225    0.282707    3.145561
