18

O       0.071464    1.393846    0.064546
C       0.024127   -0.007929    0.045548
C       0.128902   -0.672900   -1.390878
N      -1.314448   -1.144145   -1.374807
C      -1.494288   -2.569789   -0.871321
C      -1.025700   -2.046953    0.477957
C       0.173428   -2.125936    1.071633
C       0.785777   -0.731409    1.189406
C      -1.376274   -0.634802    0.058731
H       0.993487    1.667769    0.014084
H       0.253827    0.082506   -2.170168
H       0.872368   -1.465289   -1.521457
H      -2.553370   -2.825753   -0.961907
H      -0.882414   -3.335651   -1.356726
H       0.765937   -3.030596    1.154881
H       1.869236   -0.762702    1.017888
H       0.624202   -0.215770    2.145971
H      -2.270263   -0.109746    0.396756
