21

C       0.068380    1.533788   -0.092822
C       0.032368    0.032772    0.000392
C       0.586359   -0.990253   -1.086089
C      -0.015037   -1.826385    0.068759
C       0.713892   -0.865011    1.065508
O      -0.377259   -3.139857    0.322049
C      -1.626993   -3.050565    1.061941
C      -2.026349   -1.532615    1.222461
C      -1.232064   -0.915656    0.067927
H       1.097140    1.897790   -0.190107
H      -0.498107    1.890768   -0.959607
H      -0.365511    1.991051    0.802953
H       0.057376   -1.016503   -2.042503
H       1.671632   -1.003681   -1.216241
H       1.806711   -0.885627    1.054013
H       0.334213   -0.804432    2.086692
H      -2.385826   -3.604334    0.497472
H      -1.495708   -3.540599    2.032180
H      -3.106719   -1.402166    1.126783
H      -1.736957   -1.164438    2.208704
H      -1.806575   -0.935357   -0.864589
