16

C       0.023389    1.523597   -0.063456
C      -0.011659    0.011091    0.026256
O       0.657025   -0.503262   -1.146857
C       0.745474   -1.822756   -1.278962
C       1.398211   -2.332473   -2.424708
N       1.521589   -3.627919   -2.619380
N       1.014580   -4.476457   -1.707296
C       0.413238   -3.946111   -0.654193
N       0.243357   -2.643074   -0.376310
H       1.053302    1.889877   -0.088616
H      -0.490303    1.873643   -0.962966
H      -0.475464    1.954885    0.809207
H       0.502020   -0.361973    0.917682
H      -1.034351   -0.377843    0.048948
H       1.814903   -1.667389   -3.174074
H       0.013560   -4.653424    0.067522
