18

O       0.150417    1.211678   -0.562511
C       0.076495   -0.038969    0.111380
C      -1.342895   -0.557202    0.177028
C      -1.915232   -1.367235   -0.967843
C      -1.673309   -2.021793    0.367177
C      -0.616014   -3.072253    0.523313
C      -0.575639   -4.268614   -0.330766
O       0.358459   -3.201316   -0.514534
H      -0.194550    1.074828   -1.451123
H       0.734133   -0.785912   -0.352406
H       0.457399    0.155000    1.120348
H      -2.028941    0.139566    0.652012
H      -2.936119   -1.186456   -1.284644
H      -1.230220   -1.646565   -1.762559
H      -2.548122   -2.222369    0.981513
H      -0.195721   -3.164079    1.526664
H      -0.151237   -5.196349    0.049517
H      -1.314380   -4.378677   -1.122948
