21

O       0.314812    1.306059    0.231236
C       0.157898   -0.105398    0.255759
C      -1.287261   -0.442400   -0.136535
C      -1.417680   -1.954149   -0.365936
C      -2.813533   -2.441940   -0.752609
O      -3.685264   -2.528574    0.356133
C      -4.338080   -1.331617    0.714632
C      -3.486033   -0.182044    1.191829
C      -2.249098    0.178660    0.849554
H       1.170944    1.522072    0.611241
H       0.849257   -0.589020   -0.452214
H       0.368298   -0.512924    1.257471
H      -1.454030    0.060211   -1.103871
H      -0.716400   -2.246072   -1.158953
H      -1.121577   -2.498611    0.539416
H      -3.247484   -1.805289   -1.542260
H      -2.742890   -3.459305   -1.153072
H      -4.965888   -0.978636   -0.126756
H      -5.029691   -1.614884    1.515832
H      -4.014303    0.469783    1.887373
H      -1.861374    1.092850    1.292577
