19

C       0.555601    1.530197   -0.095176
C       0.020237    0.103997   -0.034029
O       0.424081   -0.673343   -1.163058
C       1.066915   -1.853121   -0.740485
C       2.396712   -1.683386   -0.084589
C       1.137906   -1.929094    0.765015
C       1.011762   -3.159747    1.626686
C       0.463273   -0.671564    1.217428
O       0.223644   -0.345689    2.353842
H       1.648808    1.541578   -0.127295
H       0.180239    2.040368   -0.985826
H       0.225780    2.076697    0.792805
H      -1.079692    0.131950   -0.011988
H       0.842911   -2.709815   -1.366796
H       3.094047   -2.514691   -0.109323
H       2.858074   -0.702126   -0.097013
H       1.528843   -4.011872    1.176339
H       1.447988   -2.975244    2.613132
H      -0.037189   -3.435839    1.774268
