22

C       1.519141   -0.182239   -0.748311
O       0.916970   -1.446882   -0.618963
C      -0.473756   -1.369190   -0.383889
C      -1.003037   -2.800753   -0.300059
C      -2.478616   -2.906935    0.039621
C      -3.464231   -2.261964   -0.924439
O      -3.508999   -0.855627   -0.751580
C      -2.939232   -4.049879    0.867787
N      -2.904598   -2.690943    1.443067
H       2.584654   -0.342610   -0.931328
H       1.095481    0.389244   -1.589400
H       1.403305    0.422479    0.165704
H      -0.675433   -0.827672    0.557050
H      -0.977555   -0.806868   -1.182644
H      -0.807945   -3.299767   -1.257283
H      -0.413471   -3.336468    0.454235
H      -3.164980   -2.441511   -1.962396
H      -4.460173   -2.705983   -0.779876
H      -3.686273   -0.724608    0.188916
H      -3.935191   -4.460862    0.726362
H      -2.197462   -4.770944    1.200912
H      -2.087788   -2.595123    2.041893
