19

C      -0.176676    1.708669   -0.010286
C       0.119056    0.207350   -0.035369
O       1.001526   -0.089703   -1.122569
C       2.123650   -0.845716   -0.657195
C       1.689415   -1.442146    0.683352
C       0.805693   -0.332222    1.253783
O       1.660726    0.615999    1.872112
C      -1.189919   -0.543081   -0.295223
O      -2.015304   -0.786040    0.547626
H       0.749412    2.257139    0.174981
H      -0.583319    2.030484   -0.972984
H      -0.909742    1.945692    0.767794
H       2.368362   -1.597383   -1.413473
H       2.990324   -0.184277   -0.527976
H       1.093035   -2.347298    0.529277
H       2.521160   -1.676015    1.349701
H       0.047054   -0.699050    1.953020
H       1.116002    1.276105    2.311500
H      -1.314007   -0.846864   -1.358531
