18

C      -0.463491    1.387197   -0.035487
N      -0.099625   -0.021728    0.047245
C       1.262920   -0.368776   -0.320106
C       0.839140   -0.440430    1.110703
C       1.358400    0.491178    2.135655
C       0.890455    0.774519    3.407821
C       1.788400    1.729206    3.924780
N       2.751852    2.026030    3.055935
N       2.466012    1.268047    1.981485
H       0.360421    2.081525    0.189746
H      -0.820234    1.591972   -1.049475
H      -1.280056    1.590352    0.663498
H       1.394957   -1.281227   -0.895614
H       1.926784    0.444088   -0.616179
H       0.584590   -1.419183    1.510644
H       0.020200    0.349606    3.881654
H       1.774294    2.211646    4.891162
H       3.093966    1.279728    1.195836
