18

C       0.002069    1.568269    0.011037
C       0.112281    0.045673    0.006191
C       0.887967   -0.552184   -1.195865
C       1.486874   -1.810610   -0.636009
C       1.412680   -1.842311    0.701558
C       1.923573   -2.854513    1.556015
N       2.324451   -3.644383    2.303787
C       0.795561   -0.559394    1.258865
O       1.801447    0.327769    1.731426
H       0.989783    2.030720    0.071290
H      -0.491240    1.917934   -0.901632
H      -0.583734    1.920627    0.865411
H      -0.895364   -0.385895   -0.020279
H       0.243541   -0.739687   -2.061627
H       1.685745    0.119967   -1.542615
H       1.948410   -2.578995   -1.245868
H       0.068979   -0.762741    2.056852
H       2.214843   -0.067508    2.506324
