14

C       0.026785    1.502636    0.015333
C      -0.020109    0.002581    0.009992
C      -1.181776   -0.693884   -0.150928
C      -1.202171   -2.139646   -0.151314
O      -2.154908   -2.883340   -0.282863
N       0.100046   -2.670627    0.031046
C       1.205991   -1.905754    0.183711
N       1.207992   -0.611686    0.181911
H       0.690806    1.858598   -0.779487
H      -0.963216    1.941277   -0.122729
H       0.448522    1.859438    0.960849
H      -2.132231   -0.192645   -0.284266
H       0.162136   -3.680263    0.041450
H       2.141806   -2.444769    0.314885
