15

C      -0.060178    1.442591    0.015326
N      -0.017538   -0.003344    0.000159
C       0.016491   -0.796887   -1.124938
C       0.041587   -2.111059   -0.726378
C       0.044875   -2.123335    0.696125
C       0.011436   -0.810528    1.117561
N      -0.069778   -0.225589    2.401298
H       0.941147    1.885612   -0.056837
H      -0.658640    1.801597   -0.825724
H      -0.519811    1.768783    0.950136
H       0.022262   -0.350201   -2.106464
H       0.059580   -2.969287   -1.380534
H       0.069773   -2.988398    1.341712
H      -0.437344   -0.892878    3.068390
H       0.834556    0.083915    2.747268
