21

O      -0.124353    1.477925   -0.019927
C      -0.014499    0.069368   -0.163535
C      -1.377807   -0.541922    0.152908
C      -1.368959   -2.042450    0.088778
C      -1.560494   -2.827057   -1.184850
C      -2.527160   -3.017156   -0.043163
C      -1.964645   -3.860919    1.134112
C      -0.558365   -4.354673    0.928955
C      -0.791689   -2.904899    1.259144
H       0.732377    1.867678   -0.216097
H       0.284262   -0.208693   -1.186604
H       0.744932   -0.343628    0.520226
H      -1.682070   -0.204994    1.152444
H      -2.114675   -0.139069   -0.551951
H      -1.964301   -2.236991   -2.003333
H      -0.881904   -3.604318   -1.518435
H      -3.581022   -2.789136   -0.145674
H      -2.597980   -4.248377    1.921667
H      -0.171841   -4.936230    1.761324
H      -0.183835   -4.688873   -0.032087
H      -0.392659   -2.449507    2.157341
