16

C      -0.023936    1.480089   -0.007199
C      -0.004349    0.025861    0.024067
C       0.014351   -1.176602    0.075084
C       0.050608   -2.640095    0.061458
C      -1.377677   -3.236786   -0.097735
C       0.869538   -3.065833   -1.189110
O       1.815199   -3.795725   -1.177383
C       0.676509   -3.163596    1.285707
N       1.137656   -3.580355    2.258369
H       0.805587    1.872769   -0.604443
H      -0.957725    1.854947   -0.439050
H       0.067670    1.891015    1.003639
H      -1.814634   -2.890615   -1.037897
H      -1.332839   -4.328476   -0.096452
H      -2.011142   -2.901696    0.725192
H       0.463271   -2.610670   -2.117102
