21

C       0.275485    0.392087   -1.849297
C      -0.286483    0.832317   -0.491182
C      -1.569776    0.093241   -0.164022
C      -1.550951   -1.187636    0.599254
N      -2.169430    0.004684    1.175513
C      -1.507609    0.638752    2.315482
C      -2.005359    2.082871    2.476459
C      -1.808200   -0.149270    3.523927
N      -2.023641   -0.759410    4.480860
H       1.185229    0.946823   -2.095979
H       0.518712   -0.675127   -1.847088
H      -0.449820    0.566331   -2.651161
H       0.469365    0.660376    0.282198
H      -0.478034    1.913008   -0.511058
H      -2.333033    0.202488   -0.934354
H      -2.228622   -2.003032    0.363708
H      -0.587734   -1.502518    1.000530
H      -0.408917    0.648552    2.226303
H      -3.092065    2.092973    2.583117
H      -1.554694    2.552196    3.354364
H      -1.735553    2.663515    1.590911
