23

C       0.530214    1.216317    0.215235
C       0.010835   -0.227469    0.096116
C      -1.481252   -0.311990   -0.130058
C      -1.983815   -0.720617   -1.296636
C      -3.445733   -0.829290   -1.662878
C      -4.393908   -1.461045   -0.669122
C      -4.293646   -1.586505    0.654198
C      -3.218522   -1.077638    1.578276
C      -2.373331    0.084481    1.029222
H       1.608010    1.228655    0.406156
H       0.341003    1.772892   -0.708136
H       0.042877    1.755689    1.033886
H       0.534994   -0.731629   -0.723100
H       0.270185   -0.772395    1.015487
H      -1.287203   -0.988724   -2.089055
H      -3.833626    0.167883   -1.936329
H      -3.521906   -1.405725   -2.592804
H      -5.290286   -1.870327   -1.133106
H      -5.102778   -2.113312    1.158395
H      -3.700610   -0.751608    2.509789
H      -2.555747   -1.905429    1.870829
H      -1.762502    0.485133    1.845178
H      -3.051149    0.894066    0.728084
