19

C      -0.122821    1.460415   -0.008499
N      -0.022506    0.025967   -0.059592
C      -1.031514   -1.034178   -0.056490
C       0.142487   -2.064394   -0.110790
C       0.231981   -2.957758   -1.315561
C       1.077332   -4.174851   -1.282991
N      -0.392097   -4.293903   -1.315677
C       1.064551   -0.808983   -0.112952
O       2.248510   -0.596971   -0.150970
H       0.892687    1.863421   -0.025711
H      -0.675428    1.856941   -0.869115
H      -0.621916    1.797267    0.908566
H      -1.646607   -1.063882    0.850227
H      -1.682833   -1.033607   -0.938234
H       0.249103   -2.645967    0.810855
H       0.125098   -2.439260   -2.267114
H       1.585031   -4.507563   -2.183186
H       1.602165   -4.401602   -0.358576
H      -0.737365   -4.511695   -0.383204
