16

C       0.132070   -1.233681   -0.170554
C       0.102526   -0.042427   -0.011281
C       0.070861    1.379080    0.151966
C       0.147298    2.310421   -1.046093
C       1.273890    2.283622   -0.037310
C       1.214941    3.266724    1.118442
C      -0.239130    3.126643    1.619270
O      -0.677429    1.814850    1.265151
H       0.157222   -2.286711   -0.303818
H       0.333846    1.849059   -2.008711
H      -0.529259    3.158118   -1.074185
H       2.230060    1.869714   -0.332267
H       1.929082    2.961919    1.890006
H       1.445229    4.297859    0.833564
H      -0.338915    3.229730    2.703056
H      -0.886516    3.879356    1.148652
