18

C      -0.332899    1.382794   -0.004180
C       0.049676   -0.069194    0.082126
N      -0.641746   -0.991388    1.000389
C       0.795767   -0.705399    1.194107
C       1.696533   -1.779999    0.622345
N       1.132606   -2.019476   -0.711435
C       0.504954   -0.789313   -1.195222
C      -0.597631   -1.075748   -2.127105
N      -1.454976   -1.252939   -2.880945
H       0.460432    1.977800   -0.469506
H      -1.242427    1.512478   -0.600976
H      -0.521102    1.793416    0.992702
H      -1.186305   -0.442430    1.662612
H       1.120790   -0.137770    2.059569
H       2.732343   -1.400028    0.610933
H       1.680289   -2.707717    1.205456
H       1.791743   -2.410375   -1.370501
H       1.197463   -0.106783   -1.720427
