18

C      -0.038120    1.465445    0.005271
N      -0.007611    0.016022    0.006119
C       0.008614   -0.777560   -1.127917
C       0.036330   -2.096027   -0.750168
C       0.060848   -3.280737   -1.669285
C       0.036732   -2.103417    0.687904
C       0.060791   -3.249980    1.581148
O       0.059756   -3.190435    2.795589
C       0.009443   -0.778865    1.103207
H       0.842289    1.872317   -0.501953
H      -0.936249    1.834995   -0.499467
H      -0.044164    1.822635    1.035973
H      -0.001063   -0.328284   -2.109091
H       0.954360   -3.896765   -1.517965
H      -0.806772   -3.932840   -1.518426
H       0.054560   -2.960559   -2.715056
H       0.081120   -4.237675    1.067279
H       0.001326   -0.372189    2.101651
