20

C      -0.136669    1.510107   -0.080986
C      -0.015658   -0.014786   -0.003728
C       0.771124   -0.511273    1.214102
C       0.143083   -0.169640    2.590104
C       0.531247   -1.326755    3.519651
O       0.690670   -1.269841    4.712448
C       0.778364   -2.527123    2.650519
N      -0.318222   -2.707125    1.648237
C       0.921967   -2.032782    1.252044
H       0.850237    1.985585   -0.116553
H      -0.685227    1.816486   -0.976791
H      -0.667863    1.915557    0.786336
H      -1.012055   -0.472039    0.019593
H       0.473312   -0.385633   -0.914511
H       1.783595   -0.085404    1.180610
H       0.472843    0.780882    3.011531
H      -0.950778   -0.145019    2.521694
H       1.294678   -3.392070    3.048923
H      -0.292788   -3.675852    1.337505
H       1.591133   -2.523900    0.551864
