20

C      -0.140450    1.564432    0.113500
C      -0.022266    0.040109   -0.018251
C       0.791747   -0.564328    1.095693
C       2.321435   -0.371444    1.209002
N       2.500146   -1.744818    1.807302
C       2.057984   -1.720612    3.249949
C       0.576296   -1.696131    2.840095
O       0.174590   -0.377160    2.405503
C       1.051017   -2.060580    1.415913
H       0.841229    2.046505    0.055079
H      -0.764078    1.978949   -0.683554
H      -0.589316    1.830899    1.074195
H      -1.020702   -0.412828   -0.008322
H       0.441687   -0.226122   -0.976178
H       2.815014   -0.337876    0.231319
H       2.676676    0.458166    1.826849
H       2.344462   -2.663559    3.728389
H       2.428229   -0.879666    3.843471
H      -0.190238   -2.186995    3.444126
H       0.817489   -2.936713    0.813763
