23

C      -0.299863    1.545870   -0.033102
C       0.056780    0.056089   -0.005594
C       0.901889   -0.418504   -1.171039
C       1.744235   -1.383433   -0.810223
C       1.605382   -1.714181    0.660077
C       2.908065   -2.121556    1.342853
O       3.313170   -3.356330    0.762816
C       0.874637   -0.456299    1.228099
C       1.839874    0.600450    1.784755
H       0.590728    2.180267   -0.066956
H      -0.901031    1.774129   -0.919750
H      -0.887846    1.833792    0.845055
H      -0.893959   -0.501579   -0.027618
H       0.774667   -0.031586   -2.177076
H       2.420630   -1.925953   -1.459813
H       0.938667   -2.585647    0.759228
H       3.678106   -1.350011    1.196912
H       2.746385   -2.230150    2.427929
H       4.179277   -3.582801    1.113483
H       0.193107   -0.748155    2.035013
H       2.547334    0.945341    1.023641
H       1.293606    1.473382    2.152717
H       2.416734    0.204762    2.626138
