19

C      -0.098722    1.486420   -0.005885
C       0.098856   -0.015509    0.114083
O       0.944699   -0.520496   -0.971931
C       1.944455   -1.259266   -0.265131
C       1.114597   -2.035607    0.809495
O       1.763764   -2.937088    1.652696
C       0.885828   -0.556908    1.316048
C       2.346093   -0.257969    0.859369
O       3.291778   -0.710478    1.819784
H       0.833438    2.040168    0.132534
H      -0.491643    1.727612   -0.998197
H      -0.822112    1.832340    0.740079
H      -0.880651   -0.507577    0.044357
H       2.646303   -1.723839   -0.958307
H       0.228856   -2.539435    0.412599
H       2.515440   -2.464114    2.037264
H       0.529375   -0.322737    2.318599
H       2.583169    0.759012    0.529679
H       4.161266   -0.708311    1.405137
