19

C      -0.095243    1.523188    0.084167
C       0.006132    0.007405   -0.018005
C       0.750029   -0.621448    1.157874
O      -1.354934   -0.473292   -0.069145
C      -1.570736   -1.683438   -0.610166
N      -0.607747   -2.455996   -1.101136
N      -1.272675   -3.551616   -1.550592
C      -2.607418   -3.479305   -1.349155
C      -2.853241   -2.272218   -0.734064
H       0.903400    1.969324    0.107651
H      -0.639709    1.933043   -0.770618
H      -0.623422    1.811630    0.998626
H       0.499140   -0.276178   -0.954472
H       0.789158   -1.707076    1.050804
H       1.776419   -0.242593    1.199907
H       0.251991   -0.373484    2.100870
H      -0.746588   -4.297624   -1.968948
H      -3.270352   -4.274121   -1.653480
H      -3.798728   -1.862962   -0.422014
