22

C      -0.268345    1.569742   -0.040009
C       0.049280    0.071214   -0.005792
C       0.878740   -0.429910   -1.170934
C       1.696659   -1.413788   -0.805743
C       1.556488   -1.741812    0.667157
C       2.852788   -2.184681    1.353537
C       0.853920   -0.460099    1.227223
C       1.845197    0.570674    1.784103
H       0.638188    2.180023   -0.087528
H      -0.872962    1.808542   -0.921636
H      -0.838602    1.878634    0.842631
H      -0.916184   -0.460936   -0.026213
H       0.760198   -0.045229   -2.178940
H       2.357565   -1.966709   -1.465736
H       0.843795   -2.578020    0.759595
H       3.645045   -1.436937    1.254993
H       2.696491   -2.373742    2.421005
H       3.219710   -3.114549    0.905691
H       0.164714   -0.733406    2.034511
H       2.567968    0.890048    1.025753
H       1.324141    1.461967    2.144761
H       2.406521    0.159971    2.628032
