19

C      -0.062351    1.538865   -0.137280
O       1.250930    2.033258    0.135146
C       2.090397    0.935997    0.477760
C       1.991902    0.549542    1.990089
C       1.117641   -0.712873    1.927806
C       1.738647   -1.474597    0.747870
C       1.491197   -0.314282   -0.223622
C       0.005922    0.024243    0.042181
O      -0.180533   -0.349119    1.423879
H      -0.789559    1.982414    0.552094
H      -0.342755    1.805239   -1.165588
H       3.104830    1.197388    0.170351
H       2.974826    0.323424    2.416904
H       1.537369    1.357024    2.567326
H       0.974743   -1.250235    2.865192
H       2.796618   -1.712162    0.887495
H       1.188884   -2.383632    0.491770
H       1.758606   -0.440971   -1.271935
H      -0.723890   -0.512257   -0.571847
