21

C      -0.023619    1.368492    0.284875
O      -0.061468   -0.036485    0.346074
C      -1.218920   -0.578843   -0.254422
C      -1.144641   -2.080070   -0.191239
C      -1.550559   -2.802492    1.074865
C      -2.400605   -2.898942   -0.152725
C      -3.852926   -2.470687   -0.357876
O      -4.115788   -3.662455   -1.129692
C      -2.757727   -4.131523   -0.976971
H       0.901051    1.692854    0.768354
H      -0.028637    1.734745   -0.754510
H      -0.877815    1.825541    0.810421
H      -2.125376   -0.219943    0.265357
H      -1.297375   -0.239058   -1.302164
H      -0.310626   -2.506169   -0.743825
H      -0.979108   -3.674540    1.376516
H      -1.916018   -2.199981    1.901501
H      -4.470308   -2.423781    0.549015
H      -4.015870   -1.558696   -0.947890
H      -2.245810   -4.228988   -1.943896
H      -2.712299   -5.092979   -0.448038
