19

C       0.011130    1.402488   -0.053385
C       0.015154   -0.086351   -0.012140
O       0.961429   -0.824085   -0.794983
C       0.186436   -2.011231   -0.460418
C       0.482108   -2.246556    1.043795
C      -0.307905   -0.951593    1.236174
O      -0.846691   -0.426607    2.393306
C      -1.065173   -1.129725   -0.074513
C      -2.515046   -1.141269   -0.431017
H       0.991896    1.797915    0.235197
H      -0.222534    1.776785   -1.054996
H      -0.734347    1.791586    0.646374
H       0.246727   -2.801367   -1.205879
H      -0.066954   -3.106359    1.437416
H       1.537730   -2.291498    1.331639
H      -0.163452    0.078055    2.849474
H      -3.039448   -0.332630    0.088444
H      -2.667687   -1.006110   -1.507496
H      -2.994222   -2.082585   -0.138276
