22

C      -0.386485    1.336168   -0.198914
C       0.448551    0.074069   -0.196807
C       1.908993    0.107628    0.104023
N       0.976394   -0.534561    1.025765
C       0.739729    0.097961    2.318226
C       1.592089   -0.561734    3.390886
C       1.333650   -2.028500    3.640363
C       2.893535    0.033888    3.729242
O       1.753473    0.245983    4.566539
H       0.019844    2.108569    0.458423
H      -0.428044    1.751266   -1.211446
H      -1.416081    1.130114    0.114280
H       0.105176   -0.673893   -0.911113
H       2.607769   -0.547468   -0.410016
H       2.325448    1.071957    0.396378
H       0.945215    1.179124    2.335337
H      -0.318372   -0.038325    2.576608
H       1.461985   -2.593485    2.713621
H       2.010998   -2.420318    4.402996
H       0.304821   -2.178505    3.986722
H       3.676327   -0.591829    4.156263
H       3.249093    0.913647    3.193273
