15

C      -0.038277    1.572513    0.001754
C       1.477389    1.733642   -0.021165
C       1.981602    0.540217    0.891672
O       0.801671   -0.149975    1.284350
C       0.061548    0.033821    0.064102
C       1.104402   -0.254935   -1.050846
C       2.435047   -0.124730   -0.417539
N       1.916587    0.990162   -1.271722
H      -0.531464    1.985929    0.883830
H      -0.496710    1.950557   -0.915598
H       1.925414    2.719110    0.078127
H       2.656749    0.693357    1.729320
H      -0.846636   -0.564060    0.072074
H       0.909559   -0.871001   -1.918280
H       3.326692   -0.696102   -0.647652
