17

C      -0.021179    1.504716    0.034139
C      -0.019221   -0.015612    0.032454
O      -0.029437   -0.674824    1.058933
N      -0.005305   -0.629248   -1.192031
C      -0.002254   -2.101492   -1.305480
C       0.015100   -2.372142   -2.836052
C       0.019284   -0.983675   -3.437225
C       0.007586   -0.063298   -2.472515
H       0.867867    1.907708   -0.461777
H      -0.900947    1.905355   -0.479913
H      -0.032287    1.836011    1.071895
H       0.871743   -2.504709   -0.788002
H      -0.886666   -2.506806   -0.807680
H       0.896997   -2.951013   -3.134265
H      -0.857907   -2.954190   -3.153577
H       0.030342   -0.775737   -4.497079
H       0.007024    1.011780   -2.573941
