19

C      -0.019244    1.519221    0.117307
C       0.044367    0.027846    0.001928
C       0.027773   -0.725591   -1.106468
C      -0.058953   -0.283162   -2.534154
C       0.051036   -2.204507   -0.772753
C       0.426510   -2.238833    0.726600
C       0.081366   -0.827005    1.253703
H       0.854377    1.910698    0.654960
H      -0.064753    2.017461   -0.854157
H      -0.899851    1.831213    0.694772
H      -0.091507    0.804012   -2.639273
H       0.797944   -0.651124   -3.113697
H      -0.955456   -0.692995   -3.018502
H      -0.936941   -2.652541   -0.959479
H       0.757427   -2.766080   -1.397079
H      -0.080379   -3.036324    1.276293
H       1.502701   -2.411875    0.828121
H       0.808134   -0.463065    1.990923
H      -0.896251   -0.804543    1.759134
