12

O      -0.846371    1.225317   -0.628292
C       0.315817    0.959583   -0.471158
C       1.360590    1.976918   -0.001149
O       2.519946    1.623365    0.080333
C       0.890673    3.344501    0.322952
C       1.383908    3.918842    1.624033
N       1.904544    4.412363    0.362531
H       0.747869   -0.046038   -0.654844
H      -0.091875    3.618634   -0.041425
H       0.727222    4.596370    2.161331
H       2.012671    3.279475    2.237537
H       2.809819    3.974113    0.187404
