14

O      -0.209663   -0.030695    0.003157
C      -0.068395    1.175870    0.009187
N       1.128927    1.834148    0.001508
C       2.390993    1.242984   -0.012830
C       3.613562    1.822103   -0.016109
N       4.539399    0.774430   -0.033755
C       3.912452   -0.464900   -0.040538
O       4.417562   -1.567703   -0.053411
N       2.558479   -0.131388   -0.028240
H      -0.916206    1.883757    0.019968
H       1.105717    2.842146    0.007386
H       3.901757    2.858000   -0.009178
H       5.539289    0.861722   -0.038057
H       1.790651   -0.784146   -0.024162
