19

C       0.322113    1.778041   -0.544173
C       0.377943    0.292771   -0.179229
C       0.621736   -0.587174   -1.408241
N       0.691827   -2.021872   -1.091184
C      -0.425417   -2.796917   -1.271906
O      -0.541867   -3.985841   -1.039478
C       1.955036   -2.490754   -0.591583
N       2.002628   -3.805746   -0.296876
O       2.878853   -1.711101   -0.468736
H       1.261113    2.107642   -1.001562
H      -0.485882    1.987969   -1.254329
H       0.151219    2.393517    0.343481
H       1.183611    0.111432    0.538333
H      -0.559381   -0.012881    0.302751
H      -0.180285   -0.452048   -2.141043
H       1.563729   -0.311050   -1.884474
H      -1.265324   -2.206117   -1.677354
H       1.183157   -4.386813   -0.421256
H       2.873915   -4.156976    0.059865
