23

C      -0.569626    1.403336    0.234480
C      -0.010830   -0.000848    0.028913
C      -1.112257   -0.958710   -0.438587
C       1.275951   -0.117740   -0.849574
C       1.868997   -1.113443    0.181856
C       0.811212   -0.641111    1.201752
C       1.241142    0.163394    2.451378
C       0.566046   -0.971956    3.240968
O       0.167026   -1.634740    2.024898
H       0.206879    2.111266    0.542039
H      -1.007914    1.781688   -0.696327
H      -1.358917    1.413628    0.995669
H      -1.561263   -0.593160   -1.368760
H      -0.727111   -1.966023   -0.621338
H      -1.899194   -1.045327    0.316204
H       1.137349   -0.483458   -1.869992
H       1.833734    0.822314   -0.890359
H       1.695686   -2.156740   -0.094273
H       2.918981   -0.996680    0.463146
H       2.319657    0.262590    2.589022
H       0.775233    1.142940    2.565057
H       1.236473   -1.595643    3.844835
H      -0.297041   -0.685416    3.853785
