17

N      -0.041456    1.276933    0.154943
C      -0.007261    0.026456   -0.018462
O       1.138301   -0.688573   -0.250596
C       0.846972   -2.062292   -0.563115
C      -0.573801   -2.309799   -0.068194
C      -0.780754   -2.480103    1.467441
C      -1.690430   -1.218782    1.473460
C      -1.207260   -0.894148    0.031273
H       0.895352    1.676348    0.074654
H       0.935804   -2.201453   -1.648053
H       1.599773   -2.683599   -0.068478
H      -1.110800   -3.040640   -0.673645
H      -1.241515   -3.415839    1.789950
H       0.147054   -2.342000    2.030247
H      -2.753050   -1.471477    1.493107
H      -1.495738   -0.454173    2.227267
H      -1.963998   -0.580618   -0.688716
