18

C      -0.092776    1.531408    0.153201
C      -0.041174    0.010301   -0.003647
C       0.772604   -0.473407   -1.225960
O       2.121472   -0.021666   -1.177701
C       0.856453   -2.009176   -1.256013
C       1.565840   -2.571410   -2.479185
O       1.343598   -3.668607   -2.918699
C       0.129946    0.022709   -2.470829
N      -0.364603    0.441534   -3.427956
H       0.905974    1.953490    0.307659
H      -0.541585    2.011288   -0.722223
H      -0.692960    1.801648    1.025821
H       0.421303   -0.444771    0.879002
H      -1.056193   -0.393807   -0.084740
H       2.135529    0.935367   -1.289457
H       1.435871   -2.308335   -0.372857
H      -0.133440   -2.464861   -1.179372
H       2.329610   -1.904285   -2.929138
