21

C      -0.318736    1.413775   -1.096066
C      -0.086136    0.305513   -0.060174
C      -1.350151   -0.470877    0.272888
C      -2.364389    0.300119    1.116513
C      -3.695102   -0.397532    1.312453
O      -4.264458   -0.480171    2.371551
O      -1.923593   -1.211347   -0.821049
C      -1.392240   -1.948190    0.292034
C      -0.238723   -2.879896    0.025870
H       0.624497    1.905866   -1.349582
H      -0.743566    0.993851   -2.012206
H      -1.001907    2.185985   -0.728825
H       0.674807   -0.379726   -0.441195
H       0.314254    0.733000    0.867683
H      -1.947017    0.543741    2.098451
H      -2.588554    1.251002    0.610701
H      -4.133911   -0.816004    0.382637
H      -2.168408   -2.393476    0.921193
H       0.504084   -2.438406   -0.640290
H       0.249941   -3.159512    0.965403
H      -0.606500   -3.797747   -0.444485
