18

C       0.087636    1.343347   -0.061825
O      -0.022005   -0.046536    0.154208
C      -1.317450   -0.582420    0.051275
C      -2.263176   -0.076860    1.140555
C      -1.989647   -0.600282   -1.387060
C      -1.982823   -2.129916   -1.296935
O      -0.613188   -2.525847   -1.188357
C      -1.287254   -2.120344    0.000614
H       1.155250    1.574992   -0.082774
H      -0.355045    1.646636   -1.022067
H      -0.380816    1.935447    0.737328
H      -2.496074    0.984421    1.013600
H      -3.208286   -0.627860    1.117485
H      -1.806779   -0.215438    2.126041
H      -2.982277   -0.144479   -1.403824
H      -1.378717   -0.205887   -2.201317
H      -2.682216   -2.847457   -1.708878
H      -1.303590   -2.815411    0.833192
