15

O      -0.003030    0.048270    0.424837
C       0.006576    1.187739    0.053244
O      -1.166558    1.842653   -0.213571
C      -1.010517    3.203147   -0.633286
C      -0.153613    3.239999   -1.909199
C       1.217770    3.051523   -1.288925
C       1.060206    3.516696    0.120758
O      -0.273144    3.915955    0.335439
C       1.222123    2.025314   -0.143477
H      -2.012021    3.622572   -0.697207
H      -0.452300    2.458425   -2.610140
H      -0.230393    4.216116   -2.396996
H       2.124270    3.194621   -1.861241
H       1.779224    4.076016    0.702693
H       2.155419    1.542242    0.113620
