11

O      -0.124656   -0.000397   -0.001333
C      -0.052360    1.185799    0.008125
N       1.192337    1.895570    0.000563
N       2.418184    1.316152   -0.017839
N       3.266870    2.284097   -0.018969
C       2.540173    3.451360   -0.000812
C       3.105859    4.821387    0.004796
O       4.284827    5.055521   -0.006125
N       1.237909    3.224799    0.011510
H      -0.884335    1.905710    0.023440
H       2.330517    5.612977    0.020151
