16

C      -0.002621    1.498160   -0.030324
N       1.297545    0.792025    0.073371
C       0.086039    0.030158    0.014505
C      -0.517463   -0.975930    0.999249
O      -1.620272   -1.126820    0.030210
C      -0.556244   -0.962372   -0.972883
C       0.249870   -2.266812   -0.747698
O       1.488233   -2.078959   -0.049178
C       0.287550   -2.271528    0.715720
H      -0.281809    2.068014    0.851538
H      -0.282579    1.958985   -0.975005
H       1.803884    0.771761   -0.807263
H      -0.838552   -0.745965    2.013157
H      -0.914668   -0.708689   -1.969895
H       0.164772   -3.139070   -1.385480
H       0.243994   -3.150859    1.347613
