22

O      -0.220890    1.391345   -0.688112
C      -0.042834    0.097621   -0.131638
C      -1.392626   -0.606342   -0.137228
C      -1.331617   -2.017448    0.460072
C      -2.683985   -2.695203    0.432463
N      -3.085471   -3.356196   -0.823235
C      -2.919341   -4.164512    0.404313
C      -1.842063   -5.221367    0.316882
O      -2.206390   -6.233436   -0.607254
H       0.632565    1.833993   -0.699454
H       0.684982   -0.491121   -0.714271
H       0.341929    0.157412    0.900425
H      -2.107663    0.010937    0.421110
H      -1.759085   -0.660730   -1.168520
H      -0.607931   -2.618508   -0.099070
H      -0.975710   -1.969706    1.498373
H      -3.461048   -2.122683    0.940790
H      -4.069793   -3.196398   -1.016390
H      -3.833479   -4.512591    0.883476
H      -0.878442   -4.768050    0.046736
H      -1.716440   -5.716213    1.285903
H      -2.402425   -5.771682   -1.431559
