19

C      -0.046415    1.477226   -0.007604
C      -0.002100   -0.027592    0.061213
O      -1.317831   -0.634231    0.053798
C      -1.019083   -1.400526    1.249358
C       0.423762   -0.844873    1.292742
C       1.554179   -1.506639    0.474242
C       1.125367   -2.181060   -0.795023
O      -0.017171   -2.965641   -0.981331
C       1.104083   -0.695076   -0.798830
H       0.954667    1.904110    0.112977
H      -0.437042    1.796180   -0.980891
H      -0.700049    1.880016    0.771096
H      -1.641752   -1.069763    2.090211
H      -1.144204   -2.473022    1.091970
H       0.753902   -0.356864    2.209089
H       2.556635   -1.644385    0.864934
H       1.990598   -2.553705   -1.350042
H       0.184689   -3.847764   -0.650991
H       1.707483   -0.136714   -1.507857
