16

C       0.035616   -1.139760   -0.025765
C       0.040423    0.062776    0.019386
C      -0.003085    1.485549    0.057057
N       0.314782    2.302223   -1.154823
C       1.182814    2.391842    0.033405
C       0.713784    3.417971    1.092287
C      -0.749385    3.732698    0.708057
C      -0.843695    2.249501    1.124623
O       0.188756    2.519167    2.133352
H       0.043753   -2.201214   -0.054635
H       0.756636    1.685251   -1.836133
H       2.201656    2.026168    0.007453
H       1.427033    4.153995    1.459948
H      -1.213486    4.368942    1.460350
H      -0.994351    4.029260   -0.308765
H      -1.736594    1.764476    1.514065
