18

C      -0.033075    1.508794    0.090387
C      -0.007123    0.005012    0.022784
C       0.858708   -0.698050   -1.044175
C       0.593159   -2.153498   -0.596021
O       1.009983   -3.179481   -1.061175
C      -0.334055   -1.923991    0.591081
N       0.304241   -0.757022    1.294186
C      -1.320011   -0.852145    0.002149
O      -2.322901   -0.432180    0.874048
H       0.948715    1.908379    0.366618
H      -0.306703    1.932480   -0.881342
H      -0.764357    1.846430    0.829586
H       0.538395   -0.541015   -2.079693
H       1.918034   -0.428372   -0.973408
H      -0.666797   -2.779125    1.176295
H       1.301107   -0.877780    1.479537
H      -1.782501   -1.056102   -0.965608
H      -1.892236   -0.295196    1.729597
