19

C      -0.589942    1.030071    0.310252
O      -0.302198   -0.354762    0.405450
C       0.892046   -0.646319    1.095843
O       0.812298   -0.325395    2.463655
C       0.446031   -1.485970    3.193361
C      -0.792757   -2.228443    2.777339
C       0.582542   -2.698787    2.330319
C       1.108390   -2.187842    0.993107
O       0.554202   -2.746853   -0.170240
H       0.217157    1.564185   -0.211819
H      -1.513392    1.127668   -0.263941
H      -0.725085    1.473638    1.302691
H       1.709412   -0.047429    0.672488
H       0.760298   -1.421013    4.227485
H      -1.288512   -2.828867    3.533006
H      -1.450992   -1.764264    2.053248
H       0.973602   -3.636056    2.706180
H       2.185706   -2.385298    0.954518
H      -0.223602   -2.214483   -0.380291
