14

O      -0.006363    1.449098    0.007580
C       0.004214    0.036217    0.002143
C      -1.411749   -0.463055    0.012042
C      -2.504879    0.337500    0.023651
N      -3.802848   -0.140585    0.032987
C      -3.926617   -1.413965    0.030203
O      -2.934922   -2.316491    0.019041
C      -1.587045   -1.901673    0.008509
O      -0.734904   -2.746674   -0.000176
H       0.903902    1.756725    0.001097
H       0.516763   -0.371213   -0.884146
H       0.531466   -0.377916    0.876612
H      -2.393957    1.415157    0.026274
H      -4.900819   -1.893564    0.036961
