14

N      -0.080460    1.295035    0.138672
C       0.050952   -0.045349   -0.016619
O       1.099080   -0.646999   -0.110759
C      -1.292637   -0.742096   -0.062190
N      -2.413539   -0.146359    0.031917
C      -3.444402   -1.192163   -0.060621
C      -2.640448   -2.509552   -0.228199
O      -1.257590   -2.078958   -0.213274
H       0.746865    1.864799    0.181251
H      -0.998790    1.702350    0.206166
H      -4.063027   -1.185698    0.842659
H      -4.105538   -0.988787   -0.909260
H      -2.783040   -3.218570    0.591215
H      -2.825852   -3.019799   -1.176753
