26

C       0.049806    1.501036    0.090058
C      -0.001806   -0.021170   -0.073794
C      -1.411623   -0.632167    0.053432
C      -2.284227   -0.337431   -1.183071
C      -3.789482   -0.544563   -0.978591
C      -1.316984   -2.145072    0.310233
N      -0.667924   -2.437131    1.585973
C      -1.545455   -2.558387    2.745164
C      -0.904648   -3.761179    2.145033
H       1.076909    1.869071    0.000320
H      -0.549203    2.023540   -0.663174
H      -0.323863    1.802282    1.075349
H       0.418754   -0.302557   -1.049855
H       0.637683   -0.485379    0.683374
H      -1.898637   -0.179855    0.931016
H      -2.118744    0.699716   -1.495071
H      -1.935341   -0.959199   -2.019676
H      -4.346094   -0.291302   -1.886576
H      -4.036662   -1.580140   -0.724298
H      -4.166804    0.092464   -0.170642
H      -2.319448   -2.605606    0.259896
H      -0.714247   -2.608652   -0.482552
H      -1.171500   -2.136050    3.673537
H      -2.616807   -2.437812    2.588334
H      -1.550538   -4.441073    1.590796
H      -0.052725   -4.234299    2.625504
