15

N      -0.093369    1.317918    0.374510
C       0.002919    0.083140    0.108680
C      -1.178751   -0.822624   -0.189606
C      -0.608433   -2.262775   -0.143856
C      -1.105708   -3.160558   -1.171158
C      -1.531983   -3.882416   -2.030890
C       0.927823   -2.062048   -0.197802
O       1.778656   -2.897719   -0.342891
N       1.147295   -0.709841    0.005816
H       0.818800    1.752154    0.525548
H      -1.988458   -0.649711    0.519347
H      -1.557155   -0.591697   -1.188954
H      -0.800578   -2.706156    0.842765
H      -1.899089   -4.531024   -2.787475
H       2.087273   -0.348889    0.084956
