21

C      -0.124318    1.565960    0.092668
C       0.137646    0.066189   -0.067699
C       0.761132   -0.569553    1.178933
C       1.027084   -2.073497    1.020593
C       1.657013   -2.664664    2.259446
O       0.815145   -2.954194    3.367801
C       1.474971   -4.059673    2.738254
C       0.593341   -5.030480    2.023547
O       0.921274   -6.164997    1.784843
H       0.804201    2.110609    0.296920
H      -0.567677    1.992056   -0.812479
H      -0.810778    1.761109    0.923840
H      -0.803538   -0.447915   -0.302949
H       0.797960   -0.102148   -0.928911
H       1.703557   -0.057162    1.417419
H       0.101699   -0.414553    2.042360
H       0.090707   -2.591413    0.791042
H       1.703025   -2.244988    0.172289
H       2.606213   -2.204557    2.546422
H       2.282402   -4.520685    3.305940
H      -0.402276   -4.627374    1.739810
