15

C      -0.073167    1.535776    0.053149
C      -0.005563    0.036166   -0.019628
C       0.006492   -0.665516   -1.216460
C       0.071245   -2.063495   -1.182308
O       0.082479   -2.737733   -2.353567
N       0.122741   -2.775134   -0.064580
C       0.111578   -2.106354    1.095520
C       0.049269   -0.729115    1.150040
F       0.040713   -0.106722    2.338757
H       0.796491    1.940678    0.580951
H      -0.110461    1.977061   -0.944783
H      -0.957760    1.860144    0.610914
H      -0.033160   -0.151592   -2.169688
H       0.129436   -3.674599   -2.119088
H       0.153614   -2.685281    2.013631
