15

O      -0.046899    1.379279    0.101699
C       0.034697    0.002185    0.054113
C       0.950018   -0.760841    1.008115
O       0.242707   -1.587971    1.948621
C       0.645744   -2.154507    0.685822
C      -0.401140   -2.014902   -0.405596
C      -1.295971   -0.786603   -0.063589
O      -1.426636   -0.449627   -1.490615
C      -0.021954   -0.803608   -1.324257
H       0.832657    1.752638   -0.017514
H       1.918871   -0.384406    1.323387
H       1.359797   -2.969606    0.730725
H      -0.874216   -2.879589   -0.863671
H      -2.181133   -0.729703    0.566249
H       0.623978   -0.762167   -2.203006
