20

C      -0.280153    1.713294   -0.176159
C      -0.030367    0.278953    0.282856
N      -1.267857   -0.496056    0.188816
C      -1.560427   -1.215681   -1.045636
C      -1.251393   -1.948950    0.216910
C       0.005883   -2.810685    0.406327
N      -0.419892   -4.208148    0.555781
C       1.014510   -2.652697   -0.661619
N       1.809055   -2.603735   -1.501394
H       0.626194    2.315817   -0.064302
H      -0.574568    1.738604   -1.230314
H      -1.081580    2.170358    0.410731
H       0.795352   -0.154280   -0.301087
H       0.277958    0.275906    1.335615
H      -2.582478   -1.151134   -1.410032
H      -0.797027   -1.228502   -1.822682
H      -2.065840   -2.388786    0.789317
H       0.484329   -2.517787    1.349913
H      -0.833019   -4.531743   -0.315177
H       0.387303   -4.799866    0.729545
