13

O       0.262170    1.385563    0.154120
C       0.074630    0.012474    0.064287
C      -0.440559   -0.828906    1.195738
C      -1.284345   -0.648453   -0.057741
C      -2.543942    0.153196    0.020326
F      -2.431200    1.191244    0.891649
F      -2.878394    0.676235   -1.166145
F      -3.584969   -0.582317    0.435234
H      -0.476049    1.771678    0.637246
H       0.853006   -0.416254   -0.557686
H      -0.006395   -1.803923    1.384914
H      -0.780163   -0.305523    2.083294
H      -1.384422   -1.483276   -0.742987
