20

C       0.076126    1.420220   -0.356596
C      -0.023715    0.000927    0.213184
C      -1.420675   -0.600111    0.070509
C      -2.418795    0.109994    0.841158
N      -3.197668    0.693663    1.467288
C      -1.991798   -1.171261   -1.222859
C      -0.905638   -1.887340   -2.036118
C      -0.647452   -2.835055   -0.818758
C      -1.732199   -2.089221   -0.032906
H       1.086197    1.819333   -0.226519
H      -0.157748    1.432453   -1.426149
H      -0.621402    2.097165    0.145811
H       0.704058   -0.647165   -0.281181
H       0.243572    0.005343    1.276202
H      -2.934644   -0.805456   -1.609803
H      -1.322572   -2.423182   -2.890820
H      -0.070199   -1.275641   -2.387797
H      -0.942160   -3.863707   -1.035163
H       0.357174   -2.849234   -0.387381
H      -2.442197   -2.540548    0.648990
