17

C      -0.304658    1.475892    0.841153
C      -0.061813    0.214738   -0.011702
C       0.974589   -0.719489    0.644501
C      -1.315358   -0.495109   -0.268984
C      -2.347470   -1.083006   -0.460023
C      -3.599925   -1.795468   -0.701700
C      -3.946191   -2.734423    0.374625
N      -4.229270   -3.475286    1.213714
H       0.634781    2.017938    0.987462
H      -1.019795    2.147304    0.358815
H      -0.701883    1.205222    1.824094
H       0.341663    0.536545   -0.981913
H       1.919937   -0.187930    0.791125
H       0.618870   -1.064604    1.619907
H       1.163822   -1.597963    0.022378
H      -4.432141   -1.088641   -0.816041
H      -3.549459   -2.360284   -1.641752
