14

C      -0.010498    1.554416    0.006080
C      -0.027847    0.050668    0.009812
C      -1.159073   -0.690429   -0.155566
N      -1.091498   -2.042907   -0.139272
C       0.102168   -2.783748    0.042174
O       0.060304   -3.993775    0.041569
N       1.251441   -2.021014    0.209957
C       1.162806   -0.721422    0.190722
H       0.629347    1.949016   -0.791381
H      -1.015053    1.959346   -0.145148
H       0.369583    1.956093    0.952222
H      -2.142308   -0.255890   -0.304203
H      -1.922152   -2.604880   -0.260470
H       2.102371   -0.180572    0.328197
