18

C      -0.095893    1.484633   -0.011850
C       0.045657   -0.012124    0.052401
O      -1.233792   -0.713191   -0.015803
C      -0.961664   -1.422763    1.220803
C       0.455039   -0.826735    1.299971
C       1.582146   -1.486764    0.473457
C       1.078561   -2.145070   -0.781346
C       1.199668   -0.651876   -0.761685
H       0.874018    1.970849    0.136236
H      -0.478657    1.784205   -0.994287
H      -0.792091    1.845916    0.750372
H      -1.635252   -1.092311    2.021542
H      -1.046562   -2.509656    1.106277
H       0.768726   -0.343779    2.224642
H       2.569870   -1.701395    0.862627
H       1.842307   -2.657516   -1.357735
H       0.097672   -2.604070   -0.833377
H       1.834895   -0.110663   -1.453906
