21

C      -0.580477    1.652417    0.373875
C      -0.358989    0.218499   -0.014487
C      -0.869193   -0.949271    0.787371
C      -1.846368   -2.069599    0.441331
O      -2.739803   -2.169891    1.547426
C       0.619501   -0.811388    0.561230
C       1.146782   -1.113773   -0.864749
C       0.109141   -1.573264   -1.849490
C       0.154664   -0.122120   -1.448225
H       0.253871    2.286654    0.050205
H      -1.494084    2.053380   -0.083927
H      -0.680531    1.756670    1.458910
H      -1.102368   -0.614222    1.798071
H      -2.401310   -1.838676   -0.479698
H      -1.314401   -3.020654    0.287667
H      -3.372145   -2.868982    1.355883
H       1.298139   -0.687183    1.397444
H       2.205861   -1.195602   -1.072618
H       0.504783   -1.754723   -2.845856
H      -0.700086   -2.241408   -1.590089
H       0.340713    0.660027   -2.173863
