21

C      -0.249511    1.487949    0.094967
C       0.027798    0.007536    0.069745
O      -1.117425   -0.727667   -0.254264
C       1.373221   -0.520209   -0.416847
C       0.986959   -0.656233    1.031803
C       1.668862    0.020759    2.221042
C       1.658659   -1.080348    3.305123
C       0.503166   -1.973722    2.846457
O       0.595839   -1.968418    1.421773
H       0.653156    2.060224    0.325987
H      -0.616976    1.816556   -0.882872
H      -1.016277    1.727466    0.839437
H      -1.029065   -1.571664    0.211803
H       1.353756   -1.427113   -1.012517
H       2.158466    0.185401   -0.672094
H       2.681868    0.353829    1.981840
H       1.102154    0.897729    2.548986
H       2.593391   -1.648067    3.282828
H       1.520532   -0.689054    4.315748
H       0.576687   -3.011662    3.179717
H      -0.465915   -1.566111    3.173508
