16

C       0.000094    1.492205    0.025690
C       0.012160    0.037074    0.000512
C       0.032249   -1.165495   -0.024404
C       0.021583   -2.625161   -0.045618
C      -1.401267   -3.201508    0.093843
C       0.691573   -3.151698   -1.319360
F       1.941426   -2.692009   -1.445986
F       0.758091   -4.494491   -1.293053
F       0.014157   -2.804590   -2.421180
H       0.880811    1.887951    0.542892
H      -0.002586    1.903672   -0.989404
H      -0.888388    1.872989    0.540966
H       0.642592   -3.005292    0.775815
H      -1.373438   -4.293525    0.089452
H      -1.844749   -2.862038    1.031685
H      -2.031177   -2.859921   -0.730402
