21

C       0.148654    1.369401   -0.340420
C      -0.074020    0.038003    0.355890
O       0.737801   -0.395168    1.150215
C      -1.315153   -0.725589    0.024168
C      -1.808237   -1.692771    1.094380
C      -1.196328   -2.251081   -0.144283
C      -2.112125   -2.663970   -1.284273
C      -3.123432   -1.502475   -1.422687
C      -2.351537   -0.235025   -0.983083
H       1.053944    1.833073    0.052402
H       0.255799    1.223720   -1.421495
H      -0.707819    2.036369   -0.194534
H      -1.198868   -1.719418    1.989854
H      -2.878350   -1.772152    1.254581
H      -0.211498   -2.695701   -0.057518
H      -1.520462   -2.771134   -2.201075
H      -2.607960   -3.624594   -1.107397
H      -3.523491   -1.413723   -2.435848
H      -3.980219   -1.668677   -0.762725
H      -3.021649    0.530653   -0.576400
H      -1.843595    0.211257   -1.845614
