21

C       0.323121    1.333100    0.261881
O      -0.096453    0.012399   -0.041248
C       0.502266   -0.520042   -1.159362
C       1.943571   -0.995195   -1.165643
C       0.847596   -1.977112   -1.466654
O       0.761611   -3.135248   -0.719891
C       0.357874   -1.813287   -2.915288
C      -0.856391   -2.665666   -3.265282
C       0.020910   -0.310365   -2.599761
H       1.408030    1.379165    0.428636
H       0.061924    2.037055   -0.540774
H      -0.195521    1.630673    1.176050
H       2.656392   -0.680556   -1.926597
H       2.355515   -1.125768   -0.169517
H      -0.169083   -3.367851   -0.628880
H       1.143183   -1.952683   -3.668278
H      -1.664267   -2.526033   -2.535692
H      -1.254311   -2.396142   -4.248763
H      -0.599373   -3.729997   -3.286201
H      -1.054043   -0.116951   -2.654800
H       0.553101    0.441880   -3.191466
