18

C      -0.109731    1.628906   -0.041659
C       1.381153    1.288293    0.030466
N       1.113052    0.124386    1.014443
C      -0.049659    0.100152   -0.040910
C       1.262729    0.023424   -0.898807
O       1.771078   -0.156185   -2.176706
C       3.104000   -0.705948   -1.938743
C       3.360966   -0.768733   -0.382498
C       1.914089   -0.853329    0.101375
H      -0.536100    2.086709    0.854274
H      -0.470543    2.107459   -0.954131
H       2.232827    1.952504    0.179869
H      -0.839541   -0.647505    0.040332
H       3.139335   -1.705900   -2.385003
H       3.833009   -0.070817   -2.449622
H       3.992450   -1.619170   -0.117634
H       3.858251    0.143654   -0.043897
H       1.543726   -1.877619    0.204635
