21

C       0.159794    1.520413    0.164817
C      -0.095278    0.022681   -0.053645
C       0.596893   -0.517403   -1.275517
C       0.195906   -0.209652   -2.729240
C       0.558027   -1.679419   -3.123879
C       0.961467   -1.944739   -1.671216
C       2.049972   -0.973848   -1.235707
C       3.071726   -0.481995   -2.114742
C       3.924283   -0.064664   -2.855193
H       1.227624    1.721514    0.297530
H      -0.183287    2.107618   -0.693438
H      -0.367802    1.885268    1.051340
H       0.233389   -0.541337    0.828652
H      -1.175484   -0.154965   -0.145354
H      -0.873266   -0.005118   -2.827446
H       0.758458    0.585291   -3.225780
H      -0.317555   -2.255171   -3.430528
H       1.347831   -1.806333   -3.869209
H       0.814160   -2.868912   -1.122997
H       2.391182   -1.163559   -0.220150
H       4.681353    0.302091   -3.502762
