14

F      -0.017637    0.061605   -0.046711
C      -0.040628    1.396552    0.041419
F       1.231146    1.832410   -0.020368
F      -0.664149    1.868059   -1.054070
C      -0.709978    1.869317    1.284929
C      -1.244215    1.120048    2.240240
C      -1.810823    2.008405    3.308974
O      -1.548445    3.339214    2.872511
C      -0.867584    3.329735    1.622266
H      -1.279174    0.039454    2.268512
H      -2.894063    1.859627    3.439914
H      -1.338922    1.831299    4.288054
H       0.102653    3.840290    1.712400
H      -1.455012    3.868096    0.863803
