17

C      -0.141461    1.555395   -0.162339
C      -0.021348    0.050006   -0.033355
O      -1.254651   -0.581181    0.230984
C       0.656269   -0.702286   -1.194514
O       1.982186   -0.182119   -1.311071
C       1.738349   -1.199034   -0.338034
C       1.148820   -0.521885    0.916614
C       1.988511    0.379519    1.673491
C       2.669812    1.145326    2.303212
H       0.812717    1.986356   -0.470465
H      -0.908597    1.807080   -0.901172
H      -0.417385    2.005894    0.798433
H      -1.684955   -0.109409    0.952377
H       0.184682   -1.124793   -2.073813
H       2.338519   -2.099411   -0.391918
H       0.681554   -1.272019    1.562164
H       3.281607    1.815857    2.854169
