21

C       0.007353    1.589080   -0.109234
C      -0.002119    0.054674   -0.013556
C      -1.457297   -0.451004    0.080791
C       0.755391   -0.600942   -1.212962
C       1.566112   -1.786224   -0.631541
C       1.637571   -1.459272    0.832728
C       0.800074   -0.469498    1.176421
C       0.634561   -0.034880    2.566507
O      -0.178107    0.776423    2.957771
H       1.031865    1.975184   -0.139179
H      -0.500350    1.914011   -1.024438
H      -0.500344    2.036475    0.747707
H      -2.040132   -0.098476   -0.777320
H      -1.499158   -1.545482    0.091442
H      -1.934450   -0.083018    0.992940
H       0.072221   -0.907107   -2.009813
H       1.446826    0.129729   -1.644703
H       1.061180   -2.752357   -0.774638
H       2.555301   -1.895173   -1.090291
H       2.268062   -1.998849    1.533774
H       1.332757   -0.528038    3.280950
