18

C      -0.052368    1.545648   -0.028042
C      -0.055997    0.007926    0.037912
C       0.772187   -0.477999    1.143830
N       1.403184   -0.868484    2.030468
C      -1.500425   -0.556871    0.175145
O      -2.271373   -0.119720   -0.940095
C      -2.816948   -1.238697   -1.641695
C      -2.322614   -2.443148   -0.893895
C      -1.585066   -2.059440    0.140943
H       0.958519    1.927944   -0.187652
H      -0.692179    1.865917   -0.852096
H      -0.437948    1.973644    0.901956
H       0.359696   -0.397245   -0.892612
H      -1.932061   -0.141526    1.100306
H      -3.915355   -1.168390   -1.648302
H      -2.483728   -1.221622   -2.690309
H      -2.560100   -3.458493   -1.183944
H      -1.095219   -2.689226    0.871250
