17

C       0.117053    1.488228    0.022203
C      -0.027900   -0.058189    0.017740
C       0.593099   -0.600956    1.240397
N       1.115477   -1.007190    2.186838
C      -1.462929   -0.410698    0.024254
N      -2.589713   -0.660469   -0.013877
C       0.621651   -0.656969   -1.242592
C       2.095841   -0.958835   -1.302764
C       1.089492   -2.083739   -1.308985
H       1.177113    1.749345    0.017538
H      -0.357055    1.897279   -0.872818
H      -0.357496    1.922689    0.903932
H       0.166075   -0.249295   -2.139480
H       2.618510   -0.716514   -2.220751
H       2.684028   -0.826900   -0.401231
H       1.016951   -2.686814   -0.410706
H       0.913290   -2.626398   -2.230119
