16

O       0.081531    1.596929   -0.193846
C      -0.005938    0.204667    0.019746
C       0.179464   -0.326378    1.486880
C      -1.107941   -1.172165    1.309331
C      -1.480571   -0.294271    0.086727
C       0.808386   -0.528642   -0.942946
C       1.515379   -1.111896   -1.732383
C       2.305376   -1.776355   -2.625333
N       2.979550   -2.342070   -3.383933
H       1.011437    1.844309   -0.255578
H       1.112482   -0.839549    1.725364
H       0.032679    0.512275    2.171865
H      -0.886125   -2.202750    1.023113
H      -1.811380   -1.184810    2.142555
H      -2.109855    0.555606    0.360958
H      -1.885338   -0.776450   -0.803565
