16

C       0.050601    1.567639    0.005620
O       1.223348    0.718234   -0.009895
C      -0.049417    0.114707    0.003066
C      -0.559939   -0.946724    0.965549
C      -1.780130   -1.250906    0.019310
C      -1.487828   -2.764516    0.012138
C      -0.097024   -2.101236   -0.002018
C      -0.581789   -0.941853   -0.952917
H      -0.100114    2.127457    0.927895
H      -0.121045    2.132131   -0.910125
H      -0.560323   -0.973313    2.054924
H      -2.737473   -0.728664    0.031540
H      -1.759348   -3.323193    0.913337
H      -1.779835   -3.318626   -0.885468
H       0.891059   -2.560706   -0.014438
H      -0.606986   -0.962912   -2.042121
