14

O      -0.159635    1.389451   -0.152259
C      -0.086131    0.016866   -0.016869
C      -0.420704   -0.675305    1.267529
N      -1.167561    0.104271    2.218277
C      -2.273715    0.395481    1.651856
O      -2.529896   -0.092422    0.420507
C      -1.376589   -0.806009    0.032094
C      -1.591711   -2.004754   -0.794777
O      -2.665854   -2.436703   -1.126385
H      -0.125165    1.780939    0.729803
H       0.704443   -0.445695   -0.604327
H       0.198516   -1.477035    1.652654
H      -3.061831    1.006049    2.074236
H      -0.636834   -2.489673   -1.101833
