17

O      -0.711280    0.863892    0.559571
C       0.258390    0.834947   -0.157661
C       1.423925    1.759915   -0.033488
C       1.891743    2.448625    1.286479
C       3.209745    2.490366    0.444091
N       2.812770    1.187261   -0.209191
C       2.809285    3.511265   -0.642803
N       2.588199    2.927855   -1.983306
C       1.480317    2.975926   -1.012143
H       0.348737    0.105640   -0.994076
H       1.420080    3.390224    1.586442
H       1.938224    1.754076    2.129366
H       4.203006    2.549448    0.887182
H       2.914396    0.470597    0.511897
H       3.020915    4.566075   -0.516850
H       2.455429    3.694418   -2.642115
H       0.593786    3.573987   -1.182482
