13

C       0.016918   -1.226397   -0.031906
C       0.020841   -0.022675   -0.013405
C       0.003124    1.394989    0.023410
C       0.277946    2.292498   -1.182090
C       1.121032    2.443537    0.035486
O       0.469136    3.238872    1.018053
C      -0.598740    2.262202    1.135982
H       0.018753   -2.287848   -0.049282
H       0.738635    1.772528   -2.015250
H      -0.427541    3.075913   -1.445815
H       2.199038    2.344929    0.084508
H      -1.588570    2.696739    0.956580
H      -0.568494    1.775659    2.115712
