17

C       0.171919    1.641283   -0.423825
C       0.233318    0.142704   -0.220417
C       1.484348   -0.664297   -0.351748
O       2.619735    0.051364    0.147722
C       2.093291   -0.041560    1.507987
C       2.177357    1.238486    2.315647
C       0.774721   -0.616143    0.987465
H       1.159996    2.088754   -0.302489
H      -0.171946    1.867646   -1.439003
H      -0.520110    2.122327    0.275546
H      -0.626022   -0.395494   -0.619455
H       1.668431   -1.465727   -1.058833
H       2.650038   -0.834309    2.027798
H       1.588744    2.046979    1.880660
H       1.812385    1.053736    3.331997
H       3.219522    1.566921    2.388542
H       0.192863   -1.375271    1.493850
