19

O      -0.057100    1.461154    0.075265
C       0.022440    0.044463    0.095264
C      -1.345222   -0.565259    0.008099
O      -2.192682   -0.274708    1.134543
C      -3.044872   -1.324815    0.579280
C      -3.614075   -0.609696   -0.660692
C      -2.231765   -0.485641   -1.334767
C      -1.876699   -1.977226   -1.576280
C      -1.783149   -2.047949   -0.043022
H      -0.673380    1.710489    0.773597
H       0.627282   -0.251369   -0.768129
H       0.528236   -0.318135    1.003566
H      -3.706613   -1.784356    1.311622
H      -4.321267   -1.200240   -1.249910
H      -4.072302    0.339110   -0.375443
H      -2.073726    0.282318   -2.088572
H      -2.613207   -2.593892   -2.099042
H      -0.892997   -2.116012   -2.033303
H      -1.308038   -2.844682    0.527318
