20

C      -0.029489    1.609833    0.013447
C       0.014827    0.075832    0.025035
C       0.683418   -0.411728    1.328090
O       0.452723   -1.795128    1.579657
C      -1.416739   -0.515158   -0.070737
O      -2.134309   -0.408826    1.136213
N       0.743006   -0.456322   -1.143296
C       2.026013   -0.156713   -1.484533
O       2.805200    0.496898   -0.822239
H       0.963486    2.032257    0.178471
H      -0.401574    1.972571   -0.949778
H      -0.708033    1.957250    0.797647
H       1.750963   -0.174435    1.299403
H       0.233015    0.120783    2.168891
H       0.919771   -2.295083    0.901904
H      -1.985625    0.034008   -0.829969
H      -1.345932   -1.564137   -0.395288
H      -1.760373   -1.074784    1.726402
H       0.200120   -0.940063   -1.843733
H       2.301439   -0.607114   -2.460489
