19

C       0.014326    1.554390    0.143350
N       0.048867    0.111269    0.175262
C      -1.202189   -0.661402    0.296496
C      -0.485827   -1.631941    1.270830
N       0.063314   -2.858872    0.670399
C       1.422623   -2.583670    0.177469
C       1.911489   -1.304814    0.879972
O       3.052965   -0.946721    1.008030
C       0.650872   -0.576360    1.342230
H       1.035210    1.948780    0.140282
H      -0.478108    1.890814   -0.775117
H      -0.524736    1.996200    1.003072
H      -2.013251   -0.100797    0.789346
H      -1.574695   -1.090439   -0.639660
H      -1.034557   -1.865008    2.182658
H       0.105057   -3.580987    1.377878
H       2.105022   -3.415880    0.365090
H       1.421460   -2.398941   -0.904785
H       0.777094    0.022400    2.250841
