21

C      -0.029251    1.459275    0.237730
C      -0.008288    0.013379    0.065781
C       0.018186   -1.182095   -0.076234
C       0.014944   -2.631305   -0.243923
C      -1.391926   -3.251128   -0.131675
C      -1.379610   -4.773170   -0.319766
C      -2.757325   -5.376462   -0.197996
C      -2.994717   -6.691430    0.408799
O      -3.288921   -5.491555    1.126269
H       0.604897    1.771377    1.075115
H       0.332060    1.974259   -0.659522
H      -1.043352    1.821918    0.439850
H       0.448287   -2.890973   -1.219854
H       0.672457   -3.091435    0.506440
H      -1.817402   -3.010683    0.848184
H      -2.046505   -2.787367   -0.879275
H      -0.968438   -5.024982   -1.307270
H      -0.724109   -5.236899    0.427526
H      -3.486949   -5.021818   -0.929666
H      -3.858994   -7.282649    0.108640
H      -2.150023   -7.266525    0.786974
