13

O       0.021965    1.395259   -0.032699
C       0.045630    0.049657   -0.066003
C       0.110600   -0.815288   -1.138754
C       0.205793   -1.417564   -2.536674
C       0.194586   -2.815955   -1.798504
N       0.101960   -2.025851   -0.550014
N       0.039094   -2.001041    0.777057
N       0.001907   -0.705821    1.065071
H      -0.027205    1.644978    0.899423
H      -0.652802   -1.244592   -3.188292
H       1.126538   -1.204268   -3.082943
H      -0.678269   -3.445584   -1.979327
H       1.112363   -3.401771   -1.872908
