16

C       0.067500    1.408270    0.015776
N       0.021303   -0.044664    0.108731
C      -1.220501   -0.643424    0.033844
C      -2.511702   -0.121468    0.017329
N      -3.430562   -1.122339    0.009219
C      -2.750268   -2.254438    0.015540
N      -1.384681   -1.996683    0.031697
C      -3.248838   -3.620695   -0.004255
O      -4.410489   -3.956927   -0.007791
H       1.104769    1.734697    0.112305
H      -0.341960    1.799378   -0.927229
H      -0.502536    1.841698    0.842595
H       0.732974   -0.502056   -0.444919
H      -2.800542    0.917804    0.008033
H      -0.650181   -2.682643    0.099765
H      -2.427553   -4.379876   -0.014414
