18

C      -0.152312    1.601619   -0.070194
C       0.043397    0.086733   -0.006775
C      -1.300151   -0.647289    0.112736
C       0.891444   -0.471444   -1.196289
N       1.831011   -1.453411   -0.633042
C       1.773800   -1.280539    0.634078
N       0.939110   -0.285889    1.118735
C       2.567422   -2.039428    1.564796
N       3.174588   -2.636486    2.345882
H       0.812658    2.113818   -0.102937
H      -0.723301    1.875911   -0.963284
H      -0.703900    1.967469    0.802340
H      -1.943069   -0.409222   -0.740750
H      -1.151779   -1.731367    0.134499
H      -1.832614   -0.351680    1.023680
H       0.272507   -0.937957   -1.968662
H       1.469977    0.327216   -1.678714
H       0.529979   -0.415224    2.034662
