21

C      -0.068884    1.424488    0.397315
C      -0.086202   -0.098502    0.252491
C      -1.456506   -0.646319   -0.163483
C      -1.525543   -2.188694   -0.195512
C      -2.127196   -2.552656    1.153420
O      -1.190392   -2.494116    2.258586
C      -1.922108   -1.410433    2.879752
C      -2.830820   -1.266328    1.641125
O      -2.505759   -0.234773    0.737341
H       0.917646    1.781106    0.708239
H      -0.317753    1.914982   -0.550850
H      -0.802673    1.750866    1.139064
H       0.636731   -0.409059   -0.513599
H       0.228164   -0.583469    1.182878
H      -1.723605   -0.215692   -1.136114
H      -2.193412   -2.532313   -0.992184
H      -0.547691   -2.654125   -0.341683
H      -2.689808   -3.491530    1.155767
H      -2.441629   -1.745327    3.786933
H      -1.288599   -0.548281    3.111195
H      -3.908880   -1.254618    1.813972
