17

C       0.021178    1.519980   -0.045125
C      -0.046579    0.001275   -0.026259
C      -1.177783   -0.613421    0.853118
C      -0.053053   -1.239612    1.694686
O       0.028894   -1.981814    2.624138
N       0.964523   -0.627218    0.890237
C       1.837032   -1.381533    0.067895
N       1.567481   -1.404699   -1.173949
C       0.314653   -0.652172   -1.389941
H       0.977573    1.859144   -0.455263
H      -0.780495    1.927806   -0.670556
H      -0.083924    1.932970    0.962498
H      -1.828530    0.088578    1.379754
H      -1.791488   -1.371574    0.359987
H       2.674162   -1.904817    0.516825
H      -0.448789   -1.345031   -1.764307
H       0.469215    0.103857   -2.165724
