11

O       0.045431    1.346103    0.007523
C      -0.025286    0.016730    0.000758
C      -1.171941   -0.695507    0.003119
F      -2.341168   -0.066669    0.012780
C      -1.151399   -2.153428   -0.004760
O      -2.141118   -2.844240   -0.003097
N       0.160554   -2.722390   -0.014894
C       1.174571   -1.970952   -0.016366
O       1.182669   -0.600682   -0.009061
H       0.974401    1.610838    0.003703
H       2.194861   -2.340964   -0.023844
