16

C      -0.058973    1.441260    0.134861
N       0.042082    0.015819   -0.046716
C       0.638963   -0.579253   -1.098135
C       1.251145    0.023205   -2.171414
C       1.823065   -0.793293   -3.180331
N       1.819766   -2.098307   -3.179800
N       1.207913   -2.661039   -2.107048
C       0.601584   -2.050612   -1.038927
O       0.076867   -2.673322   -0.119904
H       0.931371    1.913037    0.191993
H      -0.611884    1.915667   -0.687228
H      -0.589115    1.646326    1.066059
H      -0.343444   -0.630904    0.626827
H       1.305242    1.101566   -2.261916
H       2.311249   -0.338757   -4.036202
H       1.203482   -3.671885   -2.103697
