22

C       0.520397    2.274104   -0.138175
C       0.060806    0.815750   -0.225505
C       0.935007   -0.054257   -1.139541
C       0.864120    0.352284   -2.615942
N       2.329928   -0.244901   -0.614032
C       2.239705   -1.734828   -0.651388
C       2.640452   -2.464624    0.622553
C       0.740105   -1.572756   -0.950208
O      -0.201522   -2.309348   -0.974252
H       1.565491    2.323609    0.183105
H       0.431913    2.793038   -1.097893
H      -0.082418    2.825771    0.589357
H       0.078251    0.376272    0.777893
H      -0.976229    0.755632   -0.577006
H       1.268853    1.359232   -2.762012
H       1.438623   -0.335303   -3.245459
H      -0.171125    0.348095   -2.970471
H       3.044643    0.132309   -1.226889
H       2.747578   -2.186167   -1.517981
H       2.141553   -2.025223    1.490480
H       2.362107   -3.521065    0.554924
H       3.721282   -2.402025    0.782822
