17

C       0.180060    1.445340   -0.109434
N       0.046663    0.006972    0.006756
N       0.031184   -0.765272   -1.114635
C      -0.144701   -1.977480   -0.619380
N      -0.245489   -2.040728    0.732831
C      -0.127896   -0.770495    1.099507
C      -0.169217   -0.297976    2.494206
C      -1.198968   -0.878819    3.408756
N       0.208603   -1.250597    3.551791
H       0.774148    1.836002    0.719168
H       0.689387    1.655592   -1.049520
H      -0.798258    1.936337   -0.114052
H      -0.194256   -2.847451   -1.257182
H       0.165438    0.721138    2.663842
H      -1.601773   -0.266981    4.211157
H      -1.884818   -1.598794    2.972435
H       0.356878   -2.155735    3.106176
