13

C       0.065943   -1.167694   -0.005449
C       0.058236    0.032319    0.002143
C       0.003329    1.482448    0.011860
O       1.351309    1.999243   -0.000974
C       1.442098    3.320525    0.006199
N       0.413957    4.138024    0.023566
O       1.034188    5.401882    0.024069
C       2.345760    5.169978    0.006982
N       2.678848    3.920195   -0.004801
H       0.078433   -2.229895   -0.012237
H      -0.535736    1.866641   -0.862347
H      -0.514693    1.855605    0.903399
H       2.997710    6.031476    0.004592
