16

C       0.235529    1.289494   -0.220651
N      -0.221402   -0.028411    0.185050
C       0.488936   -0.763687    1.104933
N       0.496416   -2.069375    1.188717
C       1.279173   -2.357374    2.296531
C       1.573445   -3.702511    2.781511
O       1.179905   -4.738892    2.298631
C       1.749501   -1.199894    2.869884
N       1.243361   -0.178010    2.098530
H       1.273173    1.305673   -0.586971
H      -0.416985    1.656614   -1.014839
H       0.151055    1.999533    0.610835
H      -0.558729   -0.620741   -0.559677
H       2.228120   -3.699457    3.685228
H       2.385057   -1.015848    3.720180
H       1.372206    0.806393    2.259309
