15

O       0.088378    1.332505    0.162108
C       0.071958   -0.005576    0.027925
N       0.075217   -0.689649   -1.086636
C       0.052959   -2.028802   -0.697668
C       0.036507   -2.126401    0.661335
C       0.010947   -3.027347    1.866917
C       0.011783   -2.012690    3.005411
C       0.033887   -0.764082    2.525621
N       0.049053   -0.806286    1.121644
H       0.103190    1.689747   -0.734841
H       0.050645   -2.815753   -1.435133
H      -0.876697   -3.672575    1.903132
H       0.879976   -3.696085    1.922810
H      -0.003510   -2.279939    4.051806
H       0.040852    0.184886    3.039493
