18

N       0.076560   -1.162315    0.047326
C       0.082783   -0.005280    0.044142
C       0.084405    1.434225    0.050009
C       0.502316    2.247006    1.261002
C       1.620846    1.542361    2.044603
C       2.473785    1.561726    0.754742
C       3.931888    1.898354    0.666387
C       3.436230    0.534235    0.239378
C       1.359681    2.260427    0.001813
H      -0.741581    1.869229   -0.505070
H      -0.159424    3.011999    1.647081
H       2.037218    2.177120    2.830431
H       1.369901    0.563422    2.463250
H       4.250255    2.591748   -0.105830
H       4.492645    1.976663    1.592406
H       3.656058   -0.314478    0.877916
H       3.419345    0.301012   -0.819840
H       1.476508    3.032841   -0.749563
