14

O      -0.245943    1.498916   -0.059898
C      -0.072003    0.138493   -0.022200
C      -1.085353   -0.904681   -0.227480
C      -0.756202   -1.562967   -1.585319
N       0.729899   -1.656079   -1.509290
C       1.055614   -0.826954   -0.601019
N       1.434535   -1.397619    0.708838
C      -0.018863   -0.918724    1.005167
H       0.501816    1.924835    0.375088
H      -2.109592   -0.757100    0.109017
H      -1.108192   -2.594038   -1.687147
H      -1.168875   -0.980264   -2.422455
H       1.999096   -0.735323    1.253042
H      -0.382878   -0.979587    2.026433
