22

C       0.030387    1.573902    0.045980
C       0.022788    0.044840   -0.020391
C       0.703484   -0.503078   -1.276458
C       0.570020   -2.025192   -1.310534
C       0.934956   -2.739764   -0.012319
O       1.205531   -3.930029   -0.017686
N       0.897406   -1.998173    1.143669
C       1.275470   -2.635308    2.393806
C       0.707158   -0.552819    1.210571
H       1.054489    1.964311    0.030224
H      -0.502301    2.002141   -0.808635
H      -0.452503    1.939517    0.958514
H      -1.021263   -0.299460   -0.025632
H       0.266572   -0.061971   -2.179422
H       1.763625   -0.214553   -1.268311
H      -0.467781   -2.304813   -1.534863
H       1.182419   -2.479165   -2.093335
H       1.414412   -3.698484    2.205929
H       2.209802   -2.210182    2.784866
H       0.493467   -2.490393    3.149032
H       1.683371   -0.059689    1.358578
H       0.114139   -0.332023    2.107895
