16

N       0.021890    1.227639    0.486257
C       0.041151   -0.016492   -0.082573
O       1.029956   -0.500310   -0.599690
C      -1.238043   -0.704514   -0.037470
C      -2.266583   -1.337122   -0.022988
C      -3.506550   -2.062184   -0.021006
O      -4.615739   -1.377795    0.498304
C      -3.759386   -3.079391   -1.127301
C      -3.498887   -3.542235    0.279612
H       0.903071    1.705853    0.585010
H      -0.758972    1.527538    1.044371
H      -4.801454   -0.634175   -0.086487
H      -4.780554   -3.121885   -1.488602
H      -2.988195   -3.220266   -1.875003
H      -2.548027   -4.006309    0.509873
H      -4.344287   -3.889752    0.861838
