19

N       0.014844   -1.158051   -0.108934
C      -0.025645   -0.004487   -0.048852
C      -0.025710    1.453898    0.035784
C      -0.192502    2.121293    1.437268
C       0.709451    3.261175    0.875047
C       1.358590    2.184860   -0.039450
C      -0.124728    4.220790    0.009888
C      -1.294271    3.440171   -0.641153
N      -1.003319    2.017390   -0.900333
H      -1.207949    2.342850    1.769507
H       0.321839    1.536117    2.200992
H       1.359755    3.788728    1.574290
H       2.146417    1.624122    0.469391
H       1.695999    2.481543   -1.036691
H      -0.532221    5.038983    0.614307
H       0.523913    4.676457   -0.748050
H      -2.163595    3.491808    0.023765
H      -1.606993    3.900003   -1.581974
H      -0.659696    1.888600   -1.845970
