15

C      -0.051741    1.447321    0.073945
O       1.403680    1.488627   -0.052425
C       1.403816    0.184050   -0.736953
C       2.160860   -1.035214   -0.190523
C       1.020343   -2.105555   -0.071367
C      -0.220899   -1.251314    0.196991
C       0.006837   -0.023489   -0.251860
H      -0.399876    1.727400    1.073724
H      -0.529328    2.091736   -0.676224
H       1.555661    0.344722   -1.813095
H       2.999946   -1.362015   -0.810793
H       2.539405   -0.795197    0.808049
H       0.934355   -2.702334   -0.989582
H       1.204134   -2.815526    0.741603
H      -1.071549   -1.602737    0.768634
