24

C       0.373957    1.328141    0.254027
C       0.176068   -0.192481    0.166833
C       0.813844   -0.908465    1.366407
C      -1.293067   -0.549465    0.033884
C      -2.465187   -0.314614    1.024925
N      -3.181581   -1.009702   -0.144624
C      -2.326005   -0.079545   -1.021589
C      -1.953942   -1.952570   -0.140915
C      -1.731458   -2.853252   -1.341932
H       1.437483    1.582161    0.307215
H      -0.049687    1.839309   -0.616377
H      -0.109711    1.735889    1.149229
H       0.677370   -0.546615   -0.746230
H       0.350788   -0.586631    2.306295
H       0.699782   -1.994772    1.293503
H       1.883950   -0.687387    1.431136
H      -2.485286   -0.893210    1.953316
H      -2.806051    0.711394    1.188094
H      -2.654504    0.962958   -0.983738
H      -2.218831   -0.406078   -2.056813
H      -1.958132   -2.566325    0.767993
H      -1.612339   -2.317777   -2.286435
H      -0.831492   -3.458575   -1.188190
H      -2.577780   -3.539998   -1.449800
