18

C      -0.030301    1.565989    0.060367
C       1.515097    1.518419   -0.022882
C       2.149940    1.154448    1.340823
C       1.869768   -0.364803    1.389965
C       0.342291   -0.600680    1.375315
C      -0.029645    0.018554    0.006593
C       1.399300    0.079642   -0.650698
O       2.251634   -0.784015    0.070945
H      -0.474724    2.041011    0.940854
H      -0.473536    2.004822   -0.838453
H       2.037910    2.310376   -0.559723
H       3.229576    1.327609    1.331996
H       1.714470    1.707142    2.178409
H       2.433164   -0.930471    2.132331
H       0.137447   -1.674676    1.391006
H      -0.180854   -0.133109    2.214573
H      -0.846958   -0.490687   -0.504681
H       1.510656   -0.056142   -1.724230
