15

O      -0.006187    0.047570    0.228686
C      -0.005917    1.233689    0.044229
C      -1.251271    2.100517   -0.203077
O      -0.809015    3.355859   -0.698690
C       0.570401    3.485648   -0.487564
C       1.075658    3.376170    0.901727
C       1.184272    2.154671   -0.051578
C       2.459570    1.660891   -0.452074
C       3.535461    1.245071   -0.791073
H      -1.898634    1.623772   -0.945040
H      -1.823928    2.210947    0.728618
H       1.051279    4.121929   -1.219997
H       2.026762    3.838134    1.137148
H       0.369056    3.322153    1.722737
H       4.482059    0.869018   -1.091049
