18

C      -0.080958    1.476667    0.006850
C      -0.000913   -0.021127   -0.037229
C      -0.916402   -0.932458    0.763100
C      -1.901713   -1.882379    0.324005
C      -2.798622   -2.629526    0.028770
C       0.602691   -1.026068    0.914905
N       1.451407   -1.671271   -0.152380
C       0.609562   -2.221151   -1.234185
C       0.783499   -0.756455   -1.147850
H       0.897771    1.927759   -0.192830
H      -0.783687    1.858160   -0.743552
H      -0.418389    1.826116    0.987433
H      -1.283868   -0.375403    1.626708
H      -3.569867   -3.302593   -0.253325
H       1.059897   -0.902800    1.889727
H       1.214013   -2.724994   -1.984460
H      -0.330801   -2.703421   -1.010861
H       1.383942   -0.197645   -1.859702
