15

C      -0.072487    1.522121    0.117856
C       0.041191   -0.001790    0.070908
N       0.751157   -0.543958    1.217384
N       2.016787   -0.922406    1.156397
C       2.316416   -1.277642    2.408921
C       1.170572   -1.080095    3.193916
O       1.031938   -1.318192    4.510897
N       0.187660   -0.611743    2.431075
H       0.918664    1.984058    0.117634
H      -0.622814    1.881706   -0.756696
H      -0.605494    1.839662    1.017568
H      -0.949514   -0.464361    0.049217
H       0.599737   -0.331919   -0.806624
H       3.289824   -1.649401    2.680583
H       0.127502   -1.086032    4.754542
