17

O      -0.070816    1.446875   -0.005485
C       0.000177    0.038693    0.138703
C      -1.388476   -0.521313   -0.153735
C      -1.425915   -2.041608   -0.113604
C      -1.472280   -2.743785    1.279537
O      -2.882811   -2.295936    1.426485
C      -2.820445   -2.723038    0.002275
C      -2.102265   -3.975392    0.574146
O      -2.123060   -5.160150    0.577334
H       0.793773    1.816463    0.195764
H       0.735443   -0.398247   -0.557882
H       0.310452   -0.244705    1.157698
H      -2.102338   -0.111084    0.564574
H      -1.692313   -0.178535   -1.149784
H      -0.743853   -2.498620   -0.840430
H      -0.819512   -2.648329    2.144659
H      -3.715536   -2.597099   -0.603396
