20

C      -0.028437    1.227484   -0.033875
C       1.202376    2.135193    0.102747
C       1.907100    2.142350    1.453275
N       1.268188    1.473693    2.595332
C       2.558679    0.964260    2.093804
C       2.641342   -0.431604    1.481942
O       2.429826   -0.458828    0.072872
C       1.134394   -0.844869   -0.311938
O       0.125705   -0.136436    0.331834
H      -0.821430    1.593203    0.622794
H      -0.388895    1.291341   -1.073784
H       1.935406    1.912384   -0.677753
H       0.838239    3.152299   -0.097465
H       2.407125    3.089196    1.656859
H       1.405564    2.004876    3.450458
H       3.430421    1.205695    2.701143
H       3.657071   -0.811881    1.637633
H       1.941230   -1.103781    1.992596
H       1.109273   -0.714266   -1.404486
H       0.948912   -1.898126   -0.054770
