15

C       0.062141    1.530687    0.082786
C      -0.058807    0.015256   -0.072699
N       0.678210   -0.482282   -1.243817
N      -0.050457   -0.747123   -2.317150
N       0.526780   -1.175448   -3.380799
C       1.892454   -1.340984   -3.323766
N       2.680243   -1.112118   -2.321976
C       2.096683   -0.629060   -1.164184
O       2.677313   -0.342225   -0.146246
H       1.105402    1.820920    0.221678
H      -0.342648    2.045362   -0.793243
H      -0.504829    1.850435    0.961535
H       0.356506   -0.495193    0.798372
H      -1.095031   -0.292416   -0.220563
H       2.327963   -1.714207   -4.248244
