24

C      -1.109348    0.791169   -2.321181
O       0.251913    0.566035   -2.635138
C       0.509197   -0.605765   -3.377399
C       0.674265   -1.887243   -2.538567
C       1.661194   -1.674333   -1.389296
N      -0.623583   -2.305059   -2.005726
C      -1.518137   -3.063818   -2.872402
C      -0.899395   -3.706247   -1.676744
C       0.103606   -4.830308   -1.830181
H      -1.727841    0.818176   -3.232744
H      -1.507933    0.022647   -1.650549
H      -1.162708    1.769702   -1.835834
H      -0.271841   -0.763425   -4.138756
H       1.454804   -0.426629   -3.903559
H       1.090247   -2.639454   -3.234294
H       1.785933   -2.588031   -0.802353
H       2.642152   -1.381681   -1.776934
H       1.303543   -0.880406   -0.730439
H      -2.562112   -2.759886   -2.878371
H      -1.135905   -3.380370   -3.843874
H      -1.519702   -3.802807   -0.786117
H       0.693269   -4.746332   -2.746088
H       0.794754   -4.869516   -0.981563
H      -0.425539   -5.788682   -1.866886
