21

C       0.357869   -1.245206    0.045253
C       0.181052   -0.055006    0.015958
C      -0.043218    1.366190   -0.041144
C      -1.131079    1.813356   -1.018466
C      -2.504851    1.259475   -0.701521
C      -3.444317    1.994824    0.221030
C      -3.737970    1.921852   -1.258256
C       0.156508    2.156631    1.244299
C       1.171428    2.265153    0.143498
H       0.518180   -2.294141    0.076508
H      -1.169273    2.909987   -1.020182
H      -0.836293    1.509314   -2.031255
H      -2.534962    0.175408   -0.639298
H      -4.061313    1.417335    0.900493
H      -3.121816    2.950063    0.622676
H      -3.607627    2.826542   -1.844099
H      -4.556102    1.294002   -1.593696
H      -0.511873    2.993121    1.414969
H       0.424404    1.603498    2.136376
H       2.132502    1.784722    0.281998
H       1.200521    3.175627   -0.445816
