18

O       0.029843   -0.034166    0.724834
C       0.038854    1.161180    0.510980
N       1.057452    1.828512   -0.076321
C       2.412330    1.360071   -0.375716
C       2.799588    2.844949   -0.674887
C       2.800669    3.235200   -2.125980
C       1.671092    3.838391   -2.496844
C       0.689398    4.011581   -1.359626
C       1.365817    3.261033   -0.192233
H      -0.803975    1.836164    0.770008
H       2.909062    0.914042    0.492760
H       2.472500    0.666290   -1.219184
H       3.656049    3.216467   -0.108715
H       3.636728    3.019623   -2.782180
H       1.455656    4.186867   -3.501092
H       0.530099    5.071363   -1.121005
H      -0.296808    3.589967   -1.586339
H       1.297884    3.792886    0.761431
