21

C       0.136836    1.643393   -0.009887
C       0.123955    0.114961    0.034012
C       0.838831   -0.522730   -1.171271
O       0.889098   -0.048599   -2.276730
C       1.480574   -1.846299   -0.732881
C       1.568813   -1.744294    0.775963
C       2.256998   -0.515494    1.324264
C       0.747242   -0.555252    1.254444
C      -0.057070   -0.604760    2.531554
H       1.148380    2.031139    0.146754
H      -0.207618    1.990028   -0.987581
H      -0.512009    2.068650    0.761216
H      -0.921956   -0.227350   -0.039621
H       0.818321   -2.665895   -1.042723
H       2.435337   -1.992031   -1.247129
H       1.595290   -2.655518    1.363452
H       2.710333   -0.589813    2.306844
H       2.807758    0.119947    0.635176
H      -0.232251    0.399504    2.934561
H      -1.036082   -1.070613    2.366430
H       0.461509   -1.182700    3.303332
