21

C      -0.108967    1.549379   -0.088682
C      -0.013938    0.060079   -0.019289
C      -0.965762   -0.835925    0.226083
C      -0.405942   -2.233779    0.201891
O       0.994494   -2.049786   -0.055009
C       1.283505   -0.673249   -0.252354
C      -0.609892   -3.014667    1.481283
C      -1.848230   -3.862612    1.644223
C      -0.501903   -4.516468    1.466910
H       0.557960    2.023439    0.642494
H       0.196512    1.920468   -1.075221
H      -1.126988    1.896798    0.104187
H      -2.010023   -0.629835    0.426605
H      -0.842692   -2.821854   -0.626264
H       1.668440   -0.504905   -1.272927
H       2.076344   -0.352614    0.442825
H      -0.244381   -2.504410    2.367948
H      -2.320149   -3.899278    2.619570
H      -2.546192   -3.907724    0.813895
H      -0.290404   -4.995504    0.516573
H      -0.048022   -5.005430    2.321352
