16

C      -1.023374    0.955078    0.063065
C       0.344548    0.273437    0.056278
N       1.108165    0.757411   -1.095417
C       2.342605    0.606086   -1.290528
O       3.301315   -0.037771   -0.566222
C       2.863849   -0.813156    0.529188
O       2.303661   -0.035410    1.557975
C       1.050697    0.505080    1.404997
O       0.585625    1.127819    2.311871
H      -0.907324    2.033403    0.190284
H      -1.520732    0.765700   -0.890647
H      -1.642644    0.577582    0.879248
H       0.182128   -0.808651   -0.048804
H       2.808781    1.046501   -2.170191
H       2.171245   -1.590663    0.189991
H       3.762089   -1.265346    0.947523
