19

C       0.083934    1.480680   -0.233184
C       0.015468   -0.011100    0.125095
O       0.503431   -0.232370    1.442775
C      -1.382204   -0.551329   -0.000164
C      -1.982560   -1.277187   -0.990425
N      -3.280601   -1.478205   -0.559890
C      -3.412426   -0.883802    0.661957
C      -4.677896   -0.901567    1.452389
N      -2.281637   -0.313997    1.020696
H       1.099943    1.852998   -0.074348
H      -0.196325    1.648630   -1.278646
H      -0.601588    2.050413    0.402032
H       0.677964   -0.569163   -0.548026
H      -0.258348   -0.107692    2.024168
H      -1.626151   -1.662931   -1.930963
H      -3.994569   -1.988175   -1.052541
H      -4.989300   -1.922238    1.702893
H      -4.516150   -0.354119    2.381583
H      -5.504396   -0.426617    0.911402
