22

C      -0.015337    1.568090    0.010568
C       0.028925    0.041760   -0.032293
C       0.559502   -0.498721   -1.372258
C       0.711966   -2.018237   -1.299010
C       1.767709   -2.411163   -0.255606
O       3.087560   -2.127651   -0.727366
C       1.566159   -1.664528    1.064621
C       2.183186   -0.319345    1.240689
N       0.735128   -0.454283    1.159513
H       0.987685    1.991357   -0.110330
H      -0.646428    1.959749   -0.793515
H      -0.416108    1.912774    0.967758
H      -0.999845   -0.332182    0.075262
H      -0.137973   -0.215541   -2.168094
H       1.525417   -0.044175   -1.622830
H      -0.248221   -2.475846   -1.025929
H       0.994124   -2.439936   -2.272324
H       1.681049   -3.487147   -0.045401
H       3.211150   -2.612467   -1.550796
H       1.478689   -2.308698    1.936286
H       2.571244   -0.017832    2.210413
H       2.736686    0.068850    0.390401
