15

C      -0.052176    1.432420    0.007540
N       0.022970   -0.016218    0.003407
C      -1.039115   -0.692508    0.009398
O      -2.296855    0.001905    0.020298
C      -3.438930   -0.688728    0.026605
C      -3.487109   -2.031367    0.023446
C      -2.203656   -2.682556    0.012687
O      -2.216667   -4.020406    0.009367
N      -1.070077   -2.065012    0.006182
H       0.961963    1.838798   -0.000528
H      -0.585711    1.823853   -0.869460
H      -0.569735    1.819402    0.896025
H      -4.309479   -0.041252    0.034493
H      -4.414229   -2.583655    0.028599
H      -1.288280   -4.300868    0.002049
