21

C       0.037072    1.443995    0.189339
N       0.006091   -0.007560    0.123189
C      -1.085389   -0.603912   -0.092740
C      -1.136811   -2.116843   -0.076261
N      -2.110580   -2.662349   -1.015864
C      -2.153564   -4.112667   -0.956697
C      -3.408337   -2.050558   -0.783180
C      -3.291518   -0.557104   -1.030070
O      -2.278905    0.052876   -0.220094
H       0.964249    1.797332   -0.272772
H      -0.817080    1.932507   -0.292462
H       0.062278    1.762765    1.239177
H      -0.137285   -2.486226   -0.310962
H      -1.369207   -2.429840    0.964484
H      -2.460456   -4.496958    0.035228
H      -2.858850   -4.492517   -1.702401
H      -1.163574   -4.520185   -1.183985
H      -4.140987   -2.469838   -1.481616
H      -3.781358   -2.236511    0.244625
H      -3.056188   -0.377689   -2.086655
H      -4.221189   -0.039517   -0.780687
