21

C      -0.387203    1.572329    0.289747
C      -0.120233    0.086821    0.130618
C      -1.345694   -0.680149   -0.378673
O      -1.652131   -0.292349   -1.703556
O       0.969292   -0.155143   -0.824088
C       1.723330   -0.921130    0.144032
C       0.690406   -0.624728    1.222681
C       0.938175   -0.200754    2.636272
C       0.220205   -1.499992    2.343780
H       0.535757    2.109307    0.520876
H      -0.813110    1.970228   -0.635148
H      -1.106808    1.748100    1.097241
H      -1.149012   -1.761324   -0.311092
H      -2.226984   -0.460519    0.234392
H      -0.819875   -0.372982   -2.188230
H       1.817723   -1.975247   -0.148979
H       2.725174   -0.502052    0.300016
H       1.956732   -0.248833    3.008916
H       0.357367    0.623687    3.037104
H      -0.844233   -1.550272    2.549624
H       0.749005   -2.431853    2.518361
