19

O      -0.014767    1.412537   -0.131516
C      -0.010563    0.013864    0.045125
C       0.286994   -0.578539    1.451899
C      -0.464146    0.165456    2.580241
C      -1.797866   -0.520422    2.185985
C      -2.436970    0.099299    0.915834
C      -1.410220   -0.635264    0.019761
C      -0.983024   -1.504765    1.249119
O      -1.032407   -2.882220    1.202544
H       0.888311    1.732986   -0.037780
H       0.632302   -0.481134   -0.697730
H       1.301882   -0.931657    1.644609
H      -0.121039   -0.164467    3.565596
H      -0.440457    1.258366    2.544231
H      -2.465201   -0.837621    2.989006
H      -3.442709   -0.295977    0.748700
H      -2.462738    1.189444    0.846332
H      -1.753981   -1.046358   -0.928840
H      -0.738468   -3.230346    2.051924
