20

O      -0.255051    1.369916    0.578806
N      -0.023091   -0.010955    0.412393
C      -1.043862   -0.582580   -0.070685
C      -2.431658   -0.153774   -0.497625
C      -2.729554   -1.653184   -0.837814
C      -3.984574   -2.302721   -0.199933
C      -4.708922   -2.162079   -1.566096
C      -3.318297   -1.982460   -2.233100
C      -1.277891   -2.037498   -0.416207
H       0.582179    1.671062    0.947301
H      -3.037221    0.285738    0.301928
H      -2.444796    0.534142   -1.349937
H      -3.803979   -3.351857    0.056328
H      -4.421667   -1.803006    0.669251
H      -5.325645   -2.999229   -1.899926
H      -5.307036   -1.248280   -1.618224
H      -3.214946   -1.222668   -3.013075
H      -2.927941   -2.930656   -2.617260
H      -0.652617   -2.420222   -1.230171
H      -1.207360   -2.733167    0.426619
