21

C       0.020984    1.513587    0.041191
C       0.043260   -0.005224   -0.010785
C       0.718347   -0.544182   -1.270100
O       0.736646   -1.964263   -1.289249
C       1.179723   -2.544074   -0.089125
C       2.665723   -2.468697    0.374130
C       2.124875   -2.326642    1.827416
C       0.766477   -1.876122    1.247815
O       0.766937   -0.460809    1.132372
H       1.038293    1.914199   -0.008357
H      -0.557052    1.922341   -0.793025
H      -0.431718    1.850374    0.977182
H      -0.986388   -0.400623    0.026925
H       0.173465   -0.237944   -2.168293
H       1.739439   -0.134724   -1.328520
H       0.847211   -3.585787   -0.118728
H       3.302631   -3.323323    0.139178
H       3.157726   -1.553629    0.039674
H       2.049170   -3.287490    2.342572
H       2.611398   -1.601289    2.480817
H      -0.161581   -2.216661    1.728160
