14

O       0.385468    0.152894   -0.204394
C       0.540842    1.322691   -0.372613
O       0.805757    2.167388    0.657563
C       0.965788    3.529630    0.346892
C       2.246874    4.227009    0.706990
C       3.412408    3.296364    0.382941
O       2.927523    3.091082   -0.976905
C       1.866036    4.008357   -0.753956
H       0.481066    1.841206   -1.344393
H       0.066511    4.119026    0.506844
H       2.286091    5.115756    1.321364
H       4.381954    3.801658    0.362827
H       3.475232    2.360883    0.946175
H       1.578791    4.668141   -1.565117
