23

C      -0.190332    1.682023   -0.130534
C      -0.104459    0.190838    0.142486
O      -1.356787   -0.396449   -0.181023
C      -1.409884   -1.794194    0.025320
C      -1.512436   -2.071788    1.522706
O      -1.080581   -3.043711    2.085541
C      -2.653185   -2.353058   -0.706362
C      -2.663112   -1.897352   -2.171943
C      -2.721491   -3.882673   -0.603414
H       0.762909    2.165900    0.101557
H      -0.427031    1.866219   -1.182263
H      -0.971345    2.140756    0.482261
H       0.691086   -0.272920   -0.462772
H       0.148846    0.007214    1.199344
H      -0.505757   -2.289689   -0.364025
H      -2.065154   -1.269141    2.066532
H      -3.535940   -1.924922   -0.210511
H      -1.799498   -2.306123   -2.710053
H      -3.567587   -2.256595   -2.673030
H      -2.628590   -0.809868   -2.249011
H      -3.637753   -4.249260   -1.075907
H      -1.873184   -4.345095   -1.120859
H      -2.707610   -4.233698    0.431020
