18

C       0.114376    1.497247   -0.029115
C       0.040825    0.010191    0.072014
C      -0.961518   -0.811186    0.815959
C       0.522228   -1.016273    1.081648
C       1.175075   -1.692438   -0.117511
C       0.846361   -3.156222   -0.428149
C       1.403242   -3.597381   -1.705258
N       1.856840   -3.944640   -2.709402
O       0.560349   -0.754709   -1.034558
H       1.138441    1.827516   -0.227234
H      -0.522204    1.854087   -0.846408
H      -0.233241    1.962146    0.897702
H      -1.479972   -0.299939    1.621257
H      -1.556896   -1.553222    0.291695
H       0.971081   -0.893616    2.058100
H       2.262823   -1.551891   -0.122931
H       1.255498   -3.787399    0.369839
H      -0.237230   -3.304945   -0.441916
