11

N      -0.093604    1.330571   -0.005169
C       0.058379   -0.017545   -0.010053
O       1.124403   -0.599987   -0.022089
C      -1.220129   -0.785142    0.001356
C      -1.437958   -2.127755    0.000684
N      -2.799591   -2.305656    0.014168
N      -3.400981   -1.204677    0.023096
O      -2.398785   -0.163243    0.014963
H       0.732525    1.905581   -0.010980
H      -1.002364    1.761473    0.006563
H      -0.739159   -2.944980   -0.008387
