18

C      -0.834780   -0.992003   -1.056566
C      -0.516551    0.069274   -0.588210
C      -0.126492    1.340689   -0.021241
C      -0.037529    1.480582    1.527754
N       1.253322    2.205153    1.401801
C       2.371234    1.632128    2.170534
C       2.980521    0.603261    1.240273
C       2.423854    0.660744    0.031483
C       1.386939    1.749613   -0.017306
H      -1.119503   -1.927704   -1.469601
H      -0.729094    2.146315   -0.450328
H      -0.833335    2.056485    2.009208
H       0.052146    0.504917    2.021746
H       3.102099    2.405614    2.448511
H       2.002085    1.199360    3.109937
H       3.785646   -0.059201    1.537070
H       2.688518    0.056112   -0.826905
H       1.641617    2.534768   -0.740671
