20

C       0.033162    1.577751    0.014476
C       0.067537    0.050009   -0.044005
N       1.016875   -0.417643   -1.053268
C       1.049607   -1.850335   -1.169672
C       2.388811   -2.529761   -1.028386
C       1.426274   -2.509843    0.135352
C       1.599378   -1.549220    1.305741
C       0.461102   -0.532579    1.327644
O      -0.112644   -0.200343    2.337404
H       1.040984    1.977798    0.162086
H      -0.368016    1.993519   -0.915743
H      -0.600560    1.898778    0.843133
H      -0.962796   -0.311374   -0.228707
H       0.870649    0.041188   -1.944127
H       0.289825   -2.335739   -1.785672
H       2.541372   -3.473209   -1.541042
H       3.259391   -1.885259   -0.976722
H       0.927333   -3.442731    0.374286
H       1.629573   -2.059783    2.270465
H       2.532763   -0.983699    1.198915
