18

C       0.251938    1.535331   -0.071841
N       1.247410    0.465683   -0.217505
C      -0.158229    0.111500    0.054624
C      -0.441398   -0.524779    1.356982
O      -0.803638   -1.920645    1.370687
C      -1.676952   -0.967820    1.999305
C      -1.118898   -0.599385    3.409943
C       0.174807   -1.318000    3.687455
C       0.175681   -0.146264    2.744232
H       0.370633    2.151663    0.814866
H      -0.082526    2.076022   -0.953506
H       1.464611    0.309070   -1.197684
H      -0.747526   -0.304929   -0.759476
H      -2.710798   -0.946328    1.674605
H      -1.699773   -0.093529    4.169216
H       0.606386   -1.110099    4.661403
H       0.333618   -2.321267    3.313842
H       0.747382    0.754607    2.918280
