17

C      -0.208800    1.533038    0.010375
C       0.023642    0.018827    0.026590
C       0.854309   -0.484801   -1.143394
N       0.672524   -0.158631   -2.347329
O       1.822479   -1.352915   -0.714848
C       1.853493   -1.459362    0.712159
C       0.788615   -0.515502    1.209454
N       0.554307   -0.182469    2.411816
O       1.428008   -0.846506    3.289637
H       0.740621    2.071919    0.073118
H      -0.704041    1.815788   -0.920548
H      -0.828401    1.828142    0.860103
H      -0.950687   -0.486376   -0.027944
H       1.347126   -0.624386   -2.956208
H       1.657727   -2.496609    1.008564
H       2.846747   -1.184161    1.082118
H       1.166549   -0.496524    4.148108
