17

C       1.011467    1.342987    0.873537
N       0.941789   -0.071055    1.183182
C       0.457462   -0.834896    0.301805
N       0.340006   -2.229955    0.493520
C       0.778800   -2.760083    1.701966
N       0.730802   -3.998406    2.004063
C      -0.235743   -2.962952   -0.613129
N      -0.339181   -4.288333   -0.412507
O      -0.580254   -2.375180   -1.618954
H       0.622662    1.596927   -0.124228
H       0.446293    1.909253    1.622475
H       2.052132    1.680316    0.938449
H       0.083199   -0.534747   -0.677217
H       1.164955   -1.967849    2.343393
H       1.106105   -4.150031    2.936379
H      -0.024602   -4.699971    0.464434
H      -0.736139   -4.823122   -1.165303
