18

C       0.010578    1.355250   -0.193828
O      -0.038589    0.058070    0.356226
C      -1.268881   -0.587902    0.149711
C      -1.589326   -1.209237   -1.260865
C      -1.757748   -2.570856   -0.578494
C      -0.454288   -2.949984    0.086440
C      -1.369366   -1.972889    0.770157
O      -1.939177   -2.221099    2.006019
H       0.993139    1.772771    0.039534
H      -0.118235    1.345478   -1.286698
H      -0.764676    2.008645    0.236787
H      -2.100796    0.046326    0.490413
H      -2.501311   -0.808930   -1.708419
H      -0.772589   -1.149990   -1.987270
H      -2.525201   -3.302322   -0.795356
H      -0.452112   -3.931153    0.550488
H       0.496895   -2.635000   -0.334551
H      -1.236012   -2.225582    2.664768
