11

N       0.040566    1.298277   -0.119283
C      -0.037321   -0.027689   -0.011591
C      -1.184634   -0.766623    0.092785
N      -1.082503   -2.124764    0.195829
N      -0.140008   -2.844711    0.214785
O       1.354345   -1.989272    0.087418
C       1.330379   -0.695208   -0.013785
O       2.311931    0.021014   -0.109679
H       0.977110    1.675679   -0.186329
H      -0.766295    1.897351   -0.133774
H      -2.186890   -0.363405    0.101319
