20

C       0.032644    1.550369   -0.070244
C       0.011764    0.036495    0.166436
C      -1.381217   -0.563438    0.010635
C      -2.050305   -0.637641   -1.407603
C      -2.241874   -2.148206   -1.238094
C      -0.926413   -2.824753   -1.034908
C      -1.544193   -2.096209    0.141522
C      -1.888190   -2.770266    1.349272
N      -2.170130   -3.295291    2.342543
H       1.042177    1.954377    0.049379
H      -0.307715    1.801492   -1.080763
H      -0.621032    2.070839    0.638193
H       0.708041   -0.452072   -0.526261
H       0.378733   -0.185213    1.176659
H      -2.067956   -0.073465    0.707394
H      -2.985757   -0.078985   -1.461002
H      -1.419930   -0.346986   -2.254320
H      -3.135528   -2.704912   -1.489376
H      -0.957466   -3.906121   -0.959995
H      -0.023565   -2.430918   -1.493368
