19

C      -0.451944    1.655609   -0.130342
C       0.028848    0.223751    0.014262
C       0.826271   -0.472674   -1.185776
C       1.090731    0.326110   -2.456885
C       1.943749   -0.598859   -0.162213
N       3.086902   -1.113022    0.224246
C       3.127083   -0.766034    1.567935
C       1.998649   -0.077446    1.975306
N       1.267433    0.039108    0.815032
H       0.350658    2.316849   -0.465791
H      -1.271875    1.706967   -0.853915
H      -0.826680    2.032488    0.826586
H      -0.778807   -0.416361    0.384699
H       0.374934   -1.437267   -1.441828
H       1.557739    1.290996   -2.242315
H       1.769782   -0.231014   -3.109118
H       0.163940    0.504410   -3.012215
H       3.981654   -1.022961    2.176815
H       1.710646    0.343834    2.923155
