15

C      -0.023060    1.408964   -0.045915
N       0.003807   -0.047842   -0.021316
N      -0.029634   -0.665659   -1.225275
C      -0.006918   -1.962351   -1.235345
O      -0.039433   -2.603966   -2.425728
C       0.050944   -2.762935   -0.053677
C       0.083691   -2.129466    1.139514
C       0.060918   -0.674884    1.224550
O       0.087238   -0.016866    2.255920
H       0.871352    1.808781    0.439120
H      -0.067169    1.720947   -1.087575
H      -0.892830    1.777336    0.504432
H      -0.076867   -1.924939   -3.112975
H       0.066684   -3.842746   -0.148264
H       0.127944   -2.660304    2.082688
