23

C       0.025134    1.545191    0.002308
C      -0.036975    0.009997    0.005039
C      -1.516376   -0.420461    0.027114
C       0.686240   -0.544333   -1.248212
C       0.956638   -2.049501   -1.162015
O       1.637586   -2.395836    0.041030
C       0.864576   -2.059818    1.187431
C       0.703764   -0.539013    1.260976
O       1.996154    0.040019    1.408476
H       1.057860    1.891929    0.068324
H      -0.426326    1.948403   -0.911085
H      -0.523273    1.959515    0.856279
H      -2.059460    0.052819   -0.797899
H      -1.655612   -1.500408   -0.068627
H      -1.997902   -0.106215    0.960030
H       0.102149   -0.326857   -2.150909
H       1.645713   -0.025931   -1.362478
H       0.018658   -2.623775   -1.229439
H       1.603373   -2.376815   -1.981227
H      -0.105373   -2.577804    1.167219
H       1.429544   -2.414965    2.053824
H       0.139040   -0.265927    2.161295
H       2.588548   -0.490170    0.860361
