13

O      -0.104235    1.401255    0.012216
C       0.025330    0.044147    0.003345
C       1.194444   -0.648490   -0.008243
N       1.195196   -2.018798   -0.016362
C       0.056182   -2.840791   -0.013899
O       0.168357   -4.055808   -0.021893
C      -1.181428   -2.082481   -0.001523
C      -1.181336   -0.727036    0.006497
F      -2.320061   -0.045430    0.017810
H       0.769328    1.805829    0.008804
H       2.163206   -0.163393   -0.011579
H       2.071264   -2.520912   -0.024964
H      -2.111357   -2.634723    0.001139
