12

O      -0.021516    0.006719    0.216032
C      -0.010551    1.177411    0.000084
O      -1.128505    1.931528   -0.168076
C      -0.836559    3.261241   -0.630484
C       0.663414    3.420926   -0.511876
O       1.127253    3.178958    0.809593
C       1.195375    2.097738   -0.139457
C       2.489259    1.576849   -0.481681
N       3.522820    1.149327   -0.768594
H      -1.169802    3.357670   -1.668694
H      -1.380793    3.970944   -0.002061
H       1.218720    4.139365   -1.105773
