29

C       0.757332   -0.146256   -1.310634
C       0.097066    0.046388    0.062393
C       0.038596    1.538400    0.420646
C      -1.315536   -0.570484    0.122984
C      -1.401379   -2.112796    0.062667
C      -0.911113   -2.715130    1.390310
C      -2.836306   -2.582876   -0.307980
C      -3.199093   -2.231335   -1.760501
C      -3.050214   -4.090633   -0.096251
H       1.758963    0.296304   -1.328800
H       0.860091   -1.202277   -1.577146
H       0.166742    0.339271   -2.097305
H       0.729963   -0.446855    0.812411
H      -0.377809    1.693092    1.421652
H       1.034780    1.992861    0.396728
H      -0.592202    2.087019   -0.289554
H      -1.803192   -0.244101    1.052658
H      -1.901287   -0.126577   -0.690604
H      -0.735533   -2.473238   -0.734876
H      -0.798264   -3.800536    1.335100
H       0.061506   -2.304343    1.676419
H      -1.613078   -2.491229    2.203279
H      -3.535198   -2.051766    0.356391
H      -4.228510   -2.529649   -1.984842
H      -3.115608   -1.163008   -1.974992
H      -2.542940   -2.762717   -2.460753
H      -2.956679   -4.383775    0.952087
H      -4.050153   -4.384999   -0.431869
H      -2.324994   -4.676221   -0.675005
