16

C      -0.014536   -1.208862   -0.065148
C       0.020693   -0.008413    0.013371
C       0.031497    1.405350    0.114708
N       0.250652    2.304274   -1.069361
C       1.158338    2.404139    0.084952
C       0.455426    3.303975    1.112749
C      -0.709683    2.289334    1.117803
C      -2.139857    2.415611    1.371428
O      -1.249361    1.780925    2.313086
H      -0.039623   -2.268765   -0.124573
H       0.710856    1.730822   -1.777363
H       2.219461    2.213444   -0.010946
H       0.952581    3.312765    2.085499
H       0.240936    4.322394    0.782435
H      -2.550126    3.370511    1.695329
H      -2.838064    1.747226    0.870979
