17

C      -0.040309    1.470727    0.016910
C      -0.021259    0.016097    0.000857
C      -0.009015   -1.189489   -0.013927
C       0.032775   -2.610843   -0.013221
C      -0.345058   -3.465924   -1.180363
C      -1.182813   -3.611608    0.077712
C      -0.414093   -4.383363    1.104316
O      -0.711217   -5.256103    1.869503
C       0.837593   -3.475693    0.983949
H       0.764642    1.867880    0.645113
H       0.090633    1.883396   -0.989567
H      -0.987720    1.853254    0.412983
H      -0.856964   -2.958714   -1.990764
H       0.312133   -4.271708   -1.496612
H      -2.246913   -3.411210    0.073940
H       1.765182   -3.917342    0.608828
H       1.030350   -2.977483    1.937445
