21

C       0.784072    0.591940    0.981329
O       1.008606   -0.562584    0.200575
C       0.346379   -0.573403   -1.070028
C       1.222912    0.079229   -2.134859
C       0.055507   -2.067102   -1.312199
C      -0.489111   -2.381783   -2.706911
O       1.234982   -2.836131   -1.134723
C      -0.994736   -2.536224   -0.290079
O      -1.916825   -1.874338    0.109349
H       1.130726    1.505741    0.478031
H      -0.281065    0.705120    1.226112
H       1.351705    0.469901    1.907128
H      -0.617550   -0.056563   -0.981909
H       2.126929   -0.514201   -2.296163
H       0.689357    0.173934   -3.084757
H       1.518526    1.084391   -1.820785
H       0.273592   -2.175280   -3.461228
H      -0.749175   -3.442509   -2.775898
H      -1.383750   -1.789803   -2.918344
H       1.670077   -2.471748   -0.351801
H      -0.828826   -3.587317    0.039836
