18

C      -0.072569    1.592368   -0.027780
C       0.026182    0.066473   -0.030040
C       0.855085   -0.535649   -1.158249
C       1.516727   -1.601605   -0.713315
C       2.853613   -2.307139   -0.724874
N       2.881508   -2.089463    0.770871
C       1.407620   -1.826209    0.760158
C       0.777711   -0.494909    1.230068
O       0.868134    0.049472    2.292801
H       0.918487    2.048870   -0.113211
H      -0.687423    1.948057   -0.859819
H      -0.518719    1.938098    0.907990
H      -0.991522   -0.353061    0.000144
H       0.979942   -0.040018   -2.114722
H       2.801544   -3.367761   -1.006840
H       3.672419   -1.830034   -1.271967
H       3.138235   -2.920792    1.294476
H       0.791871   -2.670254    1.104264
