17

C      -0.081838    1.547887    0.121770
C       0.150535    0.065432    0.011054
O      -0.743987   -0.771341    0.736221
C       0.655317   -0.808422    1.112371
C       1.293029   -2.027010    0.506891
C       1.332110   -1.843680   -0.812896
C       0.843427   -2.466129   -2.099320
O      -0.020843   -1.298150   -2.263546
C       0.741932   -0.543858   -1.262248
H       0.798507    2.106903   -0.211721
H      -0.928064    1.846931   -0.506256
H      -0.308064    1.830812    1.152490
H       0.869878   -0.435809    2.109729
H       1.420861   -2.956408    1.048239
H       1.571416   -2.535069   -2.917756
H       0.276951   -3.399003   -2.020343
H       1.398354    0.180234   -1.763904
