19

C      -0.059999    1.572146   -0.010082
C      -0.001450    0.049234   -0.017157
C       1.086609   -0.552804   -0.963467
C       1.821924   -1.125169    0.270293
C       3.245849   -1.187168    0.416834
N       4.399549   -1.217159    0.498278
C       0.754705   -0.546132    1.192663
N       0.986726   -1.962303    1.109237
C       0.030819   -2.912666    0.557415
H       0.933906    2.005421    0.147697
H      -0.446601    1.954168   -0.960158
H      -0.713792    1.935643    0.789915
H      -1.006815   -0.362037   -0.153334
H       0.771687   -1.285703   -1.710758
H       1.671608    0.225189   -1.457628
H       0.888895   -0.056704    2.152617
H      -0.526881   -2.561056   -0.320408
H       0.569566   -3.823218    0.281785
H      -0.687934   -3.166475    1.341756
