19

C      -0.184901    1.569475   -0.040314
C      -0.022137    0.047548   -0.008644
C       0.811967   -0.526106   -1.179249
C       2.278283   -0.074881   -1.145407
C       0.706747   -2.021945   -1.204937
C       1.623227   -3.011967   -1.037292
O       1.022367   -4.197071   -1.142843
N      -0.355395   -3.919312   -1.393063
N      -0.496181   -2.671752   -1.420512
H       0.770191    2.091740    0.072370
H      -0.636605    1.898768   -0.982860
H      -0.836727    1.903131    0.772643
H       0.440872   -0.261933    0.937648
H      -1.010826   -0.422568   -0.035677
H       0.358926   -0.158668   -2.110713
H       2.765288   -0.388651   -0.214737
H       2.842657   -0.495302   -1.983644
H       2.354538    1.012780   -1.208123
H       2.683766   -3.017898   -0.850203
