17

C      -0.138234    1.450685    0.005546
C       0.034214   -0.036902    0.018906
C      -0.079803   -0.923241   -1.254062
C       0.645266   -2.239856   -0.962674
C       0.025065   -2.166737    0.460275
C       0.671632   -0.902044    1.065427
O       1.227753   -0.668064    2.102485
C      -1.042532   -1.128592   -0.123545
O      -2.377858   -0.934306    0.073242
H       0.752702    1.953206   -0.384721
H      -0.990728    1.741182   -0.616416
H      -0.316338    1.821851    1.019155
H      -0.242768   -0.432399   -2.206007
H       0.240709   -3.066034   -1.553851
H       1.739716   -2.245352   -1.014791
H      -0.163171   -3.046930    1.068710
H      -2.865265   -1.622657   -0.394512
