13

N       0.368324    0.666419   -0.410106
C      -0.390405    0.340977    0.667231
O      -0.250348    0.816298    1.775300
C      -1.543749   -0.642934    0.389823
C      -1.281800   -1.787264   -0.576389
O      -0.570808   -1.694331   -1.560048
C      -1.971729   -3.022694   -0.269858
C      -2.558191   -4.038171    0.002138
H       1.178258    1.242087   -0.242927
H       0.325279    0.083515   -1.234847
H      -1.891803   -1.019149    1.352165
H      -2.371887   -0.061944   -0.041319
H      -3.068469   -4.942949    0.229880
