16

N      -0.075999   -1.210415   -0.190283
C      -0.025921   -0.072095    0.001491
C       0.015409    1.380344    0.200510
O       0.090339    1.763452    1.580697
C       1.361579    2.431321    1.390272
C       1.361567    2.107653   -0.119720
C       2.502826    1.291384   -0.667692
C       3.894267    1.552707   -0.279489
O       3.183153    0.427627    0.240091
H      -0.862913    1.815820   -0.291857
H       1.303588    3.491308    1.655831
H       2.157414    1.938909    1.956535
H       1.197487    2.976115   -0.762406
H       2.321735    0.849928   -1.648645
H       4.700356    1.318460   -0.972053
H       4.115437    2.338928    0.441763
