17

C       0.053171    1.448326    0.072745
N      -0.130727    0.012040   -0.026795
C       0.556641   -0.649321   -1.048930
C       1.195924   -0.117095   -2.153079
N       1.647171   -1.185213   -2.872116
N       1.354012   -2.365473   -2.306550
C       0.686381   -2.058719   -1.195275
C       0.171195   -3.116452   -0.273888
H       1.109633    1.756462    0.152264
H      -0.369960    1.934843   -0.813591
H      -0.486194    1.823316    0.945964
H      -0.026549   -0.453493    0.864531
H       1.355213    0.897712   -2.477161
H       2.146524   -1.171082   -3.743357
H       0.643294   -3.064687    0.716134
H      -0.910168   -3.021001   -0.120554
H       0.376979   -4.104011   -0.691868
