23

C       0.191228    1.539488   -0.162819
C      -0.054038    0.033360    0.039216
C       0.652084   -0.528357    1.237582
C       0.097182   -1.050866    2.336371
C       1.125257   -1.471152    3.367312
C       0.796548   -2.741141    4.155366
C       2.419470   -1.548918    2.501804
O       2.640880   -2.850511    1.974556
C       2.166172   -0.524915    1.371504
H       1.255618    1.755750   -0.297879
H      -0.337926    1.903592   -1.048654
H      -0.159413    2.111557    0.702020
H      -1.130101   -0.153527    0.129496
H       0.282029   -0.497901   -0.862940
H      -0.971829   -1.141161    2.505636
H       1.255632   -0.649832    4.090484
H       0.672474   -3.603060    3.494777
H       1.595364   -2.982226    4.863671
H      -0.130291   -2.611554    4.723974
H       3.318185   -1.326597    3.083290
H       1.876632   -3.069434    1.428338
H       2.696110   -0.814129    0.456444
H       2.531933    0.473515    1.649736
