15

C       0.022459    1.522465    0.006837
C      -0.004850    0.023847    0.014238
C      -0.059682   -0.797439   -1.086213
N      -0.055485   -2.105052   -0.647100
C       0.003551   -2.132220    0.722522
N      -0.039096   -3.376293    1.389270
C       0.040816   -0.828375    1.163528
H       0.936743    1.918216    0.465723
H      -0.027316    1.912219   -1.014459
H      -0.821540    1.947628    0.563382
H      -0.093367   -0.562250   -2.138099
H      -0.194200   -2.922686   -1.214602
H       0.864575   -3.842012    1.390680
H      -0.313905   -3.248108    2.355559
H       0.113371   -0.514690    2.194813
