19

C      -0.005865    1.587365    0.016673
N       0.039507    0.096644   -0.009416
H       0.601597   -0.257381    0.767636
H      -0.895750   -0.295792    0.123534
C       0.624625   -0.525037   -1.294343
C       0.628782   -2.026972   -1.230183
C      -0.745512   -2.681179   -1.326099
C       1.649184   -2.519104   -2.406129
O       2.562269   -1.700405   -2.623993
O       1.371386   -3.622521   -2.877413
H       1.008679    1.960512   -0.124053
H      -0.636243    1.925893   -0.805727
H      -0.410115    1.934434    0.968921
H       0.003798   -0.134163   -2.105947
H       1.650697   -0.167894   -1.405503
H       1.133207   -2.336671   -0.300106
H      -1.371878   -2.561651   -0.426351
H      -1.306472   -2.291364   -2.184121
H      -0.594242   -3.747306   -1.506089
