20

C      -0.630485    1.259503    0.004182
C       0.145981   -0.041282   -0.118833
C       1.559860   -0.050308   -0.767062
C       1.984942   -1.137856    0.255615
C       0.781604   -0.713700    1.132751
C       1.037806    0.095979    2.441457
C       0.249360   -1.028200    3.157142
O      -0.071662   -1.282769    4.286126
N       0.041186   -1.666330    1.957106
H      -0.013976    2.054054    0.437901
H      -0.969796    1.605710   -0.977982
H      -1.517289    1.136659    0.636039
H      -0.477006   -0.795659   -0.616801
H       1.627754   -0.298333   -1.827901
H       2.083089    0.895236   -0.594439
H       1.845509   -2.146505   -0.145964
H       2.980887   -1.074331    0.700824
H       2.082918    0.174400    2.746884
H       0.561840    1.075764    2.501053
H      -0.404416   -2.545547    1.736329
