21

C       0.000519    1.518726    0.078044
C       0.027123   -0.000948    0.017762
C       0.711454   -0.534964   -1.259216
C       0.873484   -2.044889   -1.192007
O       0.565519   -2.783798   -2.097840
C       1.430569   -2.540815    0.132516
C       0.698742   -1.874296    1.317563
C       1.334588   -2.202370    2.659882
O       0.711688   -0.461290    1.173974
H       1.020075    1.916632    0.074144
H      -0.536786    1.928548   -0.782112
H      -0.495719    1.853560    0.992702
H      -1.008123   -0.384450    0.039573
H       0.149068   -0.272905   -2.158781
H       1.709411   -0.080781   -1.325352
H       1.352665   -3.630150    0.170599
H       2.491902   -2.263409    0.189024
H      -0.348745   -2.223651    1.315687
H       2.369769   -1.848045    2.686221
H       0.784067   -1.716130    3.469487
H       1.331411   -3.282368    2.833416
