22

C      -0.018700    1.593958   -0.023703
C      -0.017495    0.058450   -0.004445
C       0.714766   -0.479571   -1.247000
C       0.625432   -1.989633   -1.503828
C       1.342290   -2.878223   -0.470641
C       0.677701   -2.946883    0.883735
C       0.351175   -1.905492    1.648767
C       0.586148   -0.448743    1.325236
H       1.003118    1.988305    0.035204
H      -0.469081    1.979916   -0.944200
H      -0.580596    2.003378    0.822344
H      -1.060562   -0.285020   -0.048634
H       0.316973    0.039798   -2.128399
H       1.774449   -0.188902   -1.182275
H      -0.427940   -2.291193   -1.566803
H       1.063703   -2.191056   -2.489368
H       1.423453   -3.891755   -0.877257
H       2.377070   -2.519091   -0.358693
H       0.455964   -3.943893    1.258578
H      -0.120813   -2.107944    2.607885
H       1.667708   -0.240218    1.311063
H       0.181023    0.159075    2.141675
