14

C      -0.049495    1.584729   -0.068340
C       1.492198    1.330604   -0.006224
O       1.182575    0.169036    0.856103
C      -0.016478    0.022924    0.001916
C       0.655155   -0.308392   -1.318183
N       0.692219   -1.046214   -2.407705
N       1.774018   -0.537547   -3.037324
N       2.434955    0.464450   -2.417151
C       1.716636    0.611702   -1.323922
H      -0.424294    2.022908    0.858474
H      -0.472234    2.066941   -0.952443
H       2.212818    2.028490    0.411096
H      -0.807028   -0.589035    0.427391
H       2.106349   -0.926352   -3.904259
