19

C      -0.151177    1.214892    0.172157
C       1.163811    2.034128    0.118221
C       2.261406    1.645262    1.080437
C       3.446961    1.087877    0.823645
C       3.960223    0.562755   -0.518860
C       2.850635   -0.061796   -1.228213
C       1.742579   -0.419821   -1.535758
C       0.291345   -0.566463   -1.395630
O      -0.100794   -0.179025   -0.084286
H      -0.577682    1.285288    1.178811
H      -0.861727    1.693476   -0.522999
H       1.532869    2.079398   -0.906522
H       0.853068    3.058207    0.374656
H       2.062769    1.907489    2.119281
H       4.136588    0.949014    1.652594
H       4.406974    1.373630   -1.111926
H       4.771795   -0.150994   -0.336431
H      -0.242903    0.026294   -2.156035
H      -0.029954   -1.606931   -1.509156
