23

O       0.213020    1.377698   -0.220496
C       0.057451   -0.014035   -0.040710
C      -1.411686   -0.497163    0.004365
C      -2.095888    0.017867    1.273170
O      -2.128780    1.448720    1.248643
C      -2.166628   -0.069782   -1.285579
C      -2.061272   -1.280900   -2.224264
C      -2.230877   -2.473161   -1.271757
C      -1.444127   -2.061160   -0.007064
H      -0.412217    1.802403    0.382680
H       0.568631   -0.492359   -0.884864
H       0.566788   -0.362863    0.876440
H      -3.119568   -0.383167    1.330154
H      -1.546420   -0.337005    2.159120
H      -2.478524    1.764454    2.086875
H      -3.220423    0.126494   -1.054202
H      -1.749246    0.848951   -1.701735
H      -2.799812   -1.263333   -3.031081
H      -1.070682   -1.311521   -2.694658
H      -3.292967   -2.597970   -1.028221
H      -1.884993   -3.422275   -1.691292
H      -0.421466   -2.453345   -0.045190
H      -1.893136   -2.469805    0.904462
