18

O      -0.043831    1.515996   -0.211956
C       0.156219    0.147592    0.090276
C      -1.187283   -0.555385    0.150737
O      -1.900422   -0.461972   -1.172401
C      -1.800524   -1.902736   -1.222796
C      -2.409106   -3.345459   -1.245189
N      -1.057206   -3.484921   -0.467481
C      -0.470746   -2.602580   -1.567964
C      -1.522286   -2.103406    0.212860
H      -0.548524    1.536875   -1.034532
H       0.833458   -0.320761   -0.633710
H       0.631908    0.100633    1.076015
H      -1.803351   -0.053294    0.903240
H      -3.293046   -3.530835   -0.633481
H      -2.407332   -3.926434   -2.171191
H      -0.388087   -3.105931   -2.533706
H       0.470017   -2.136359   -1.282176
H      -2.335082   -2.300729    0.910067
