23

C      -0.065697    1.567686   -0.002429
C       0.032534    0.027868    0.026757
C       0.703396   -0.487067   -1.226293
C       1.904541   -1.063914   -1.251494
C       2.753175   -1.279182   -0.025498
C       2.263435   -0.432113    1.159747
C       0.749692   -0.498905    1.270055
C       0.097752   -0.320937    2.615183
C       0.162864   -1.693444    1.984964
H       0.927656    2.027083    0.005800
H      -0.577072    1.907132   -0.909347
H      -0.623068    1.943213    0.861260
H      -0.997984   -0.355913    0.040530
H       0.154052   -0.347646   -2.155536
H       2.311325   -1.412450   -2.198354
H       2.740431   -2.345772    0.243699
H       3.801537   -1.046441   -0.251297
H       2.729094   -0.771683    2.091429
H       2.577636    0.609244    1.013115
H       0.730914   -0.118890    3.473432
H      -0.869473    0.169959    2.656680
H      -0.757323   -2.124006    1.603820
H       0.845432   -2.420173    2.414567
