20

C       1.061566   -0.570783    1.086603
C      -0.169037   -0.548031    0.204023
O      -1.276871   -0.354974    0.663178
C      -0.002222   -0.817633   -1.275688
C       1.303072   -0.475551   -1.968167
C       1.494727    1.035222   -2.153937
O       2.718794    1.350489   -2.796712
C      -0.832419   -1.981278   -1.743135
N      -1.217189   -0.617730   -2.082562
H       1.606602   -1.512986    0.962688
H       1.752927    0.233563    0.814260
H       0.759055   -0.451841    2.127287
H       2.158872   -0.885638   -1.421326
H       1.302446   -0.949725   -2.956719
H       0.629293    1.442870   -2.694720
H       1.535253    1.541095   -1.182378
H       2.660327    1.042154   -3.706564
H      -0.458082   -2.585668   -2.565479
H      -1.415508   -2.514704   -0.997456
H      -1.952495   -0.320822   -1.439348
