12

O       0.083025    1.361252   -0.120772
C       0.065315    0.003274   -0.027624
C       0.013780   -0.733573   -1.211588
N      -0.007528   -2.067230   -1.236309
C       0.021812   -2.699877   -0.086517
F      -0.000489   -4.032020   -0.139964
C       0.073557   -2.082818    1.158521
C       0.095635   -0.694987    1.180870
H       0.118753    1.743980    0.761781
H      -0.010592   -0.213258   -2.164712
H       0.095306   -2.672929    2.066024
H       0.135954   -0.161901    2.126856
