16

O      -0.064569   -0.025915   -0.045467
C      -0.021544    1.163252    0.042741
C      -1.029190    2.315025    0.067096
C      -0.802582    3.002252    1.421844
C      -0.967761    4.506918    1.092435
C       0.288402    4.287634    0.257554
C       0.781083    3.171721    1.209097
C       1.041487    2.252608   -0.000500
N       0.005088    3.144904   -0.736009
H      -2.040141    2.229283   -0.326248
H      -1.234914    2.547833    2.311768
H      -1.886334    4.839967    0.600126
H      -0.755049    5.135975    1.962295
H       0.893640    5.081660   -0.175765
H       1.431074    3.291512    2.073926
H       2.038667    2.133247   -0.419047
