14

O       0.000379    0.136230    0.654113
C      -0.018732    1.177953    0.064952
C      -1.324321    1.924925   -0.195157
O      -1.251827    3.009809   -1.104708
C      -0.101056    3.792497   -0.859889
C       1.138312    2.940675   -1.136661
O       1.140964    1.763128   -0.321995
C      -0.130461    4.966849   -1.736860
N      -0.106346    5.896797   -2.420093
H      -2.046401    1.213971   -0.599507
H      -1.695074    2.259469    0.786830
H      -0.081919    4.142749    0.185995
H       1.149512    2.651671   -2.192621
H       2.057736    3.481405   -0.901295
