21

C       0.004953    1.517655    0.242102
C       1.544695    1.380347    0.085565
C       1.413405   -0.163114    0.205813
C      -0.144168   -0.035371    0.095583
C      -0.743907   -0.508240   -1.187026
C      -0.394029   -0.190135   -2.445811
C       0.634445    0.674124   -3.022181
C       1.609578    1.481140   -2.560733
C       2.135652    1.903016   -1.215528
H      -0.299676    1.877215    1.228244
H      -0.506349    2.111242   -0.519174
H       2.110357    1.837376    0.903165
H       1.892605   -0.750748   -0.580576
H       1.734520   -0.550571    1.176050
H      -0.675921   -0.498696    0.929187
H      -1.576003   -1.201966   -1.087578
H      -0.990920   -0.670194   -3.219238
H       0.588555    0.651167   -4.110298
H       2.180616    1.968335   -3.351877
H       2.094316    3.004476   -1.193938
H       3.214585    1.676660   -1.217281
