10

O      -0.042187   -0.011899    0.133190
C      -0.032485    1.159174   -0.043889
O       1.092612    1.907989    0.270784
C       1.022613    3.250556    0.164320
N      -0.067210    3.957291    0.290439
O       0.337290    5.254636    0.122700
N       1.684155    5.339208   -0.089733
C       2.127350    4.115201   -0.070082
H      -0.839282    1.777490   -0.462118
H       3.168827    3.877135   -0.213669
