17

N       0.050521    1.384892    0.067226
C      -0.019443    0.013754    0.037957
C      -1.168212   -0.679326    0.205158
C      -1.259983   -2.116803   -0.038111
O      -2.297655   -2.691996   -0.292859
N      -0.045424   -2.847888    0.081278
C       0.741579   -3.155128   -1.105738
C       1.235671   -2.177978   -0.085433
C       1.273673   -0.675637   -0.336739
H       0.942180    1.805115    0.276269
H      -0.741765    1.882255    0.443865
H      -2.108444   -0.169050    0.386918
H       1.161319   -4.156214   -1.157371
H       0.389875   -2.756851   -2.055569
H       1.991209   -2.533794    0.611990
H       1.498427   -0.441398   -1.384924
H       2.092487   -0.237861    0.247840
