17

C      -0.070060    1.404719    0.007055
C       1.233050    0.697526    0.028088
N      -0.026019   -0.082124    0.107038
C      -0.081123   -0.663305   -1.196222
N       0.898750   -0.497572   -1.991465
C       1.885673    0.343267   -1.303511
C       2.529093    1.459394   -2.163216
O       3.847531    0.907378   -1.988623
C       3.327039   -0.223388   -1.266059
H      -0.427029    1.904948    0.901486
H      -0.416213    1.826735   -0.932889
H       1.838997    0.720733    0.928082
H      -0.961517   -1.245489   -1.452205
H       2.204920    1.446759   -3.209992
H       2.446491    2.476125   -1.759668
H       3.774367   -0.320632   -0.268414
H       3.442067   -1.163462   -1.817139
