14

O      -0.721176    1.044825    0.611019
C       0.263195    0.673803    0.028113
C       1.473983    1.578749   -0.139253
O       2.546020    1.027597   -0.954602
C       2.582555    2.218301   -1.727159
C       1.296736    2.419276   -2.498410
C       0.503864    1.319514   -2.973817
N      -0.130907    0.430153   -3.353254
C       1.395247    2.823924   -1.027694
H       0.368933   -0.341517   -0.403640
H       1.859404    1.834300    0.855681
H       3.544605    2.602727   -2.042771
H       1.317727    3.278373   -3.163024
H       1.179834    3.829777   -0.698282
