20

C       0.031118    1.392549   -0.058582
N       0.039517   -0.056481    0.057748
C      -1.290774   -0.650000   -0.011012
C      -1.160695   -2.000295    0.691757
O      -2.003347   -2.857154    0.723917
C       0.209971   -2.030758    1.352651
C       0.722488   -0.587483    1.259265
C       2.242218   -0.506819    1.066550
O       2.634775   -1.155511   -0.124392
H       1.050573    1.786029   -0.043226
H      -0.423830    1.683435   -1.010254
H      -0.538731    1.878095    0.754964
H      -2.051540   -0.061278    0.537901
H      -1.648527   -0.762394   -1.039835
H       0.154603   -2.427728    2.367974
H       0.860270   -2.688427    0.763272
H       0.439910   -0.020930    2.165681
H       2.569243    0.545334    1.078399
H       2.745835   -1.009059    1.899596
H       1.972881   -0.890254   -0.779832
