18

C       0.041509    1.583455   -0.419176
C      -0.066267    0.066551   -0.586620
C      -1.140407   -0.555150    0.313169
O      -2.439363   -0.004281    0.081511
C      -1.191819   -2.054206    0.200984
C      -0.296873   -3.049396   -0.124940
N      -0.920950   -4.258293   -0.030344
N      -2.157247   -4.071735    0.333456
N      -2.324151   -2.745113    0.479660
H       0.782740    2.000556   -1.106301
H      -0.919518    2.066232   -0.614447
H       0.343373    1.846529    0.600331
H      -0.293679   -0.190879   -1.630173
H       0.894768   -0.409063   -0.358272
H      -0.924460   -0.282295    1.354890
H      -2.640044   -0.119342   -0.855411
H       0.738481   -2.973226   -0.414001
H      -3.219566   -2.361041    0.739180
