19

C       0.081402    1.474686   -0.187817
C      -0.044794   -0.034815    0.046918
C       0.750557   -0.841202   -1.004170
O       2.092956   -0.885767   -0.516895
C       2.008326   -1.044432    0.879282
C       0.631463   -0.466375    1.365124
C       0.221961   -1.851293    1.948856
C       1.527528   -2.444993    1.385718
O       1.980230   -3.548706    1.323099
H       1.134179    1.773653   -0.222677
H      -0.381525    1.765549   -1.136315
H      -0.405297    2.042131    0.611775
H      -1.100948   -0.324132    0.033010
H       0.347981   -1.860108   -1.112535
H       0.773519   -0.373514   -1.991516
H       2.935762   -0.688367    1.335596
H       0.672278    0.340926    2.096341
H       0.172475   -1.893428    3.041386
H      -0.691975   -2.303584    1.549621
