21

C      -0.158835    1.504813   -0.151431
C       0.032924   -0.009350   -0.001517
C       0.748484   -0.609046   -1.217525
C       0.807030   -0.366901    1.296366
O       2.124201    0.185324    1.307944
C       0.056265   -0.006577    2.502129
C      -0.566897    0.317892    3.482523
C      -1.272780    0.671507    4.713981
O      -1.195610   -0.327508    5.720370
H       0.805398    2.010674   -0.276172
H      -0.760624    1.732083   -1.036318
H      -0.663941    1.933542    0.719530
H      -0.955587   -0.476699    0.095484
H       1.767128   -0.217489   -1.292551
H       0.812732   -1.700071   -1.144069
H       0.216757   -0.365680   -2.142497
H       0.965217   -1.452918    1.299435
H       2.046871    1.111355    1.560221
H      -0.895981    1.640655    5.079430
H      -2.340897    0.807000    4.510441
H      -0.266740   -0.557888    5.827314
