13

O       0.021529    1.374489    0.159834
C      -0.039929   -0.029035   -0.004001
C       0.517520   -0.771757    1.238819
C      -0.133633   -0.276634    2.525970
O       0.498873    0.001157    3.507518
C      -1.469015   -0.362046   -0.196963
N      -2.577415   -0.659136   -0.317421
C       0.715093   -0.457089   -1.206907
N       1.362923   -0.767556   -2.110915
H       0.947801    1.628442    0.262988
H       0.334026   -1.847911    1.132217
H       1.597563   -0.614546    1.302923
H      -1.241276   -0.211618    2.501634
