19

C      -0.029466    1.420368    0.177084
C       0.198924   -0.088002    0.045101
C       0.602823   -0.475608   -1.367189
O       0.799433   -1.906973   -1.392887
C       1.153810   -2.428895   -2.576016
O       1.320362   -1.788248   -3.584906
C       1.327951   -3.932467   -2.489438
C       2.579306   -4.393026   -3.226237
O       3.271701   -5.300971   -2.851711
H       0.877386    1.984351   -0.066273
H      -0.824421    1.764709   -0.493212
H      -0.319367    1.681817    1.198333
H       0.980548   -0.415228    0.740117
H      -0.711266   -0.634651    0.316798
H      -0.166054   -0.210800   -2.100590
H       1.532619    0.013613   -1.675949
H       1.331102   -4.297922   -1.462595
H       0.472513   -4.381934   -3.013752
H       2.794172   -3.823440   -4.153318
