15

O      -0.182377    1.287240   -0.071981
C      -0.006770   -0.070877   -0.067310
C       0.987009   -0.901311   -0.878672
C       0.097489   -2.126254   -0.487591
C       0.301950   -2.239689    1.044335
O       0.664845   -3.122618    1.770447
C      -0.337382   -0.906744    1.234552
C      -1.065988   -1.096942   -0.135134
O      -2.384277   -1.021926   -0.456993
H       0.527651    1.693658    0.438398
H       0.925881   -0.668369   -1.945214
H       2.032078   -0.929398   -0.550216
H       0.021580   -3.000628   -1.127614
H      -0.702455   -0.394093    2.114625
H      -2.870311   -1.693019    0.036875
