18

C       0.411898    1.756775   -0.129729
C       0.048209    0.303097    0.195162
C       0.827607   -0.177958    1.445005
O       0.614914   -1.537532    1.748094
O      -1.360820    0.336866    0.482841
C      -2.061322   -0.819806    0.572467
N      -3.238392   -0.781137    1.025461
C       0.364909   -0.576893   -0.939355
C       0.675720   -1.308866   -1.841855
H       1.471250    1.841779   -0.381656
H      -0.183233    2.105951   -0.975285
H       0.192609    2.388019    0.735490
H       1.894096    0.048766    1.300106
H       0.461867    0.395073    2.301571
H       0.981939   -2.056520    1.022491
H      -1.525213   -1.697191    0.205881
H      -3.645258   -1.714107    0.998277
H       0.932321   -1.937436   -2.659672
