12

N       0.002315    1.316501    0.009092
C      -0.028964   -0.023260    0.001475
N      -1.158920   -0.680760    0.004354
N      -0.993351   -2.027530   -0.003555
N       0.119071   -2.727021   -0.013532
N       1.247318   -2.112924   -0.016965
C       1.271328   -0.716066   -0.009704
N       2.340292   -0.009651   -0.014139
H       0.915041    1.744958    0.003154
H      -0.843835    1.858394    0.013445
H      -1.841446   -2.571848   -0.001386
H       3.157657   -0.622738   -0.022946
