14

C       0.083901   -1.202983   -0.015354
C       0.048697   -0.002036    0.000771
C      -0.023711    1.433585    0.032541
C      -0.329340    2.273013    1.324244
C       0.433594    3.286798    0.425619
O       1.256532    2.166387   -0.041091
C      -0.548634    3.463900   -0.748962
C      -0.865871    2.199292   -1.021714
H       0.123046   -2.264280   -0.032098
H      -1.372651    2.466252    1.578607
H       0.257690    1.934935    2.180336
H       0.999010    4.134227    0.807243
H      -0.875534    4.388921   -1.199720
H      -1.519852    1.755447   -1.756380
