16

N      -0.128962   -1.161262   -0.139293
C      -0.074236   -0.011419   -0.042414
C       0.004554    1.453409    0.031389
O      -0.573881    1.936367    1.258295
C       0.458569    2.713593    1.875800
C       1.135733    3.398761    0.688027
C       1.449777    2.021392    0.066681
C       2.176466    1.362834    1.253358
O       1.454419    1.867491    2.401738
H      -0.556864    1.860463   -0.820021
H       0.013383    3.297337    2.678236
H       0.457184    4.015494    0.096193
H       2.026766    3.963445    0.967057
H       1.972753    1.985596   -0.887241
H       2.126631    0.270183    1.240640
H       3.226424    1.672418    1.312577
