19

O      -0.179778    1.441526    0.093535
C      -0.022595    0.039695   -0.005091
C       0.597746   -0.618164    1.301310
O      -0.189282   -1.762488    1.698970
C      -1.055113   -2.040238    0.616149
C      -2.615691   -1.915101    0.622896
C      -2.427508   -0.452333    1.090137
C      -1.338826   -0.684569   -0.012557
C      -2.444545   -1.387313   -0.855124
H       0.692576    1.847598    0.088471
H       0.585773   -0.226669   -0.882047
H       1.634871   -0.935224    1.132186
H       0.579525    0.118420    2.112010
H      -0.650152   -2.837823   -0.021255
H      -3.353452   -2.641087    0.966332
H      -3.220878    0.251722    0.831044
H      -2.071275   -0.308568    2.109107
H      -2.110747   -2.109665   -1.605505
H      -3.256400   -0.761694   -1.229946
