16

O       0.004062    0.084519   -0.429129
C       0.004592    1.214449   -0.022794
C      -1.231720    2.104299    0.186077
N      -0.824963    3.303403    0.919162
C      -0.221166    3.010349    2.217473
C       0.678016    3.272645    1.051619
C       1.239882    2.041756    0.358367
C       1.384982    4.515637    0.926720
C       2.015498    5.533472    0.819219
H      -1.624859    2.393249   -0.796454
H      -2.021455    1.556140    0.708844
H      -0.354504    3.782704    2.967995
H      -0.262264    1.989303    2.597956
H       1.921425    1.452734    0.976881
H       1.777947    2.314031   -0.556295
H       2.558615    6.441282    0.725996
