18

C       0.004898    1.532442   -0.065466
C      -0.051046    0.009120   -0.109115
N       0.821354   -0.513248   -1.146061
C       0.851157   -1.885971   -1.342420
C       0.459937   -2.898475   -0.504758
N       0.783087   -4.076677   -1.201638
C       1.313348   -3.691336   -2.378051
O       1.711627   -4.611597   -3.274166
N       1.379512   -2.392349   -2.519804
H       1.028594    1.878357    0.104458
H      -0.347975    1.966826   -1.008093
H      -0.631310    1.919196    0.735525
H       0.288480   -0.397421    0.852698
H      -1.094498   -0.329902   -0.238083
H       0.761580   -0.016534   -2.025252
H       0.015187   -2.920659    0.473057
H       0.641277   -5.023501   -0.897902
H       2.064432   -4.117707   -4.024597
