19

C       0.352904    1.694352   -0.127638
C       0.128180    0.190846   -0.127505
N       1.233206   -0.623000   -0.660496
C       1.517675   -1.295868    0.498862
O       2.359183   -2.105708    0.796968
C       0.337135   -0.576957    1.227254
N       0.548431    0.210680    2.418745
C       1.190378   -0.462517    3.549460
C       1.912075    0.594502    2.791514
H       1.324271    1.951166    0.301660
H       0.311788    2.091601   -1.147391
H      -0.424252    2.187897    0.462895
H      -0.830700   -0.048148   -0.602653
H       1.630167   -0.695484   -1.586285
H      -0.480169   -1.278096    1.423131
H       0.759413   -0.247841    4.523454
H       1.532839   -1.483393    3.401213
H       2.737702    0.269237    2.163879
H       2.009741    1.595689    3.201076
