15

O      -0.134975    1.441886    0.133107
C       0.026020    0.042594   -0.006623
C      -1.370853   -0.567705    0.060608
C      -1.361590   -2.115844   -0.029420
C      -2.808405   -2.619110    0.104454
O      -3.279358   -2.961823    1.151806
C      -0.777063   -2.589925   -1.283714
N      -0.344616   -2.970779   -2.285747
H       0.723701    1.859444    0.018725
H       0.501441   -0.218951   -0.963540
H       0.651175   -0.375897    0.799307
H      -1.840313   -0.288954    1.008685
H      -1.981471   -0.149674   -0.746598
H      -0.796774   -2.529118    0.812966
H      -3.396023   -2.599340   -0.837367
