21

C       0.040079    1.504088   -0.037659
C       0.039645   -0.017373    0.020812
O       0.736212   -0.471123   -1.147055
C       0.705736   -1.858334   -1.318576
C       2.030589   -2.567344   -1.327025
C       1.114657   -2.684943   -0.126598
C       1.318365   -1.942152    1.169113
C       2.194550   -0.716863    1.298597
C       0.694966   -0.566196    1.279540
H       1.064718    1.885335   -0.002355
H      -0.426798    1.849526   -0.964134
H      -0.513666    1.919596    0.809742
H      -1.001196   -0.381432   -0.021422
H      -0.092020   -2.207835   -1.973170
H       2.142649   -3.436127   -1.966431
H       2.916586   -1.949171   -1.239474
H       0.610933   -3.639221   -0.007408
H       1.266672   -2.571664    2.051425
H       2.716784   -0.574689    2.238184
H       2.736628   -0.374084    0.425199
H       0.189552   -0.304007    2.204305
