15

C       0.049495    1.515485    0.194929
C      -0.062668    0.039775    0.028470
C      -1.125440   -0.625957   -0.407900
O      -1.155708   -1.993958   -0.536220
C      -0.050951   -2.735886   -0.206747
N      -0.045855   -3.992226   -0.314683
C       1.162695   -1.998876    0.291622
N       2.210940   -2.619850    0.614539
O       1.090519   -0.629722    0.382747
H       0.862057    1.915658   -0.421560
H      -0.882105    2.005237   -0.095501
H       0.270462    1.773549    1.236572
H      -2.054951   -0.161842   -0.699722
H      -0.949774   -4.315482   -0.665938
H       2.925457   -1.959179    0.927343
