23

C      -0.089716   -1.304205    1.957456
C      -1.610070   -1.457793    1.841936
C      -2.257715   -0.994401    0.526432
C      -3.522363   -0.190520    0.746693
O      -3.189681    0.994024    1.462523
C      -1.432523   -0.613860   -0.682874
C      -2.273770   -1.863630   -0.716378
C      -1.640969   -3.228661   -0.747899
O      -1.349482   -3.543163   -2.105199
H       0.244575   -1.600498    2.957071
H       0.455835   -1.921418    1.236409
H       0.208957   -0.263911    1.797099
H      -1.890755   -2.499254    2.047344
H      -2.059806   -0.858044    2.639262
H      -3.981527    0.054032   -0.223767
H      -4.249968   -0.795823    1.312838
H      -4.007953    1.415712    1.740362
H      -1.746817    0.242235   -1.270287
H      -0.357223   -0.740091   -0.628941
H      -3.178924   -1.816670   -1.317827
H      -0.727640   -3.244922   -0.135115
H      -2.333780   -3.969989   -0.315870
H      -1.012408   -4.443582   -2.134846
