17

C      -0.048962    1.506029    0.028378
C       0.061866    0.010604    0.035469
O      -0.792959   -0.725211    0.926475
C       0.630245   -0.843326    1.071681
C       1.320237   -1.990071    0.248994
O       1.785222   -1.223551   -0.882979
C       0.475532   -0.767850   -1.278344
C      -0.299519   -2.079496   -1.340867
C       0.230932   -2.845698   -0.389854
H       0.853813    1.953210   -0.400185
H      -0.905257    1.831865   -0.572779
H      -0.182587    1.887044    1.043895
H       1.053308   -0.494733    2.008418
H       2.150762   -2.486727    0.747660
H       0.533845   -0.154152   -2.176277
H      -1.159640   -2.271581   -1.966060
H      -0.090107   -3.816969   -0.042075
