18

C      -0.086865    1.589177    0.038973
C       0.046330    0.074279    0.001632
C       1.122667   -0.579486   -0.960329
C       1.767451   -1.262610    0.250608
C       2.191354   -0.348272    1.356690
C       0.726984   -0.654531    1.182785
N       0.163263   -1.761981    1.927099
C       0.792787   -2.788738    1.505309
O       1.737612   -2.656922    0.511780
H       0.876153    2.076981    0.224902
H      -0.471507    1.970723   -0.913073
H      -0.776119    1.900382    0.830682
H      -0.930272   -0.383165   -0.176781
H       0.683754   -1.296170   -1.656009
H       1.769253    0.106432   -1.517157
H       2.668071   -0.816583    2.209526
H       2.573397    0.635958    1.104200
H       0.668118   -3.803153    1.866514
