18

C       0.248015    1.578943    0.044415
C       0.015155    0.084279    0.241270
C      -1.066700   -0.486926   -0.659056
O      -1.674171    0.185071   -1.460318
C      -1.338211   -1.962925   -0.492528
N      -2.748716   -2.364325   -0.393394
C      -1.996149   -2.783212   -1.574964
C      -2.439809   -2.199209   -2.885558
O      -2.066417   -2.648295   -3.940433
H       1.035115    1.938328    0.712622
H       0.541299    1.794241   -0.986033
H      -0.664974    2.144308    0.246997
H       0.933993   -0.492411    0.059294
H      -0.259803   -0.147299    1.280641
H      -0.621015   -2.499139    0.126187
H      -2.849219   -3.133017    0.264261
H      -1.641798   -3.809112   -1.656042
H      -3.148357   -1.357292   -2.801074
