16

C      -0.033983    1.458174   -0.021898
N      -0.018651    0.003540    0.032672
C      -0.020847   -0.642016    1.249918
N      -0.035895   -0.015418    2.359391
C      -0.002043   -0.689151   -1.172080
C       0.002206   -0.164598   -2.433358
O       0.019463   -1.155469   -3.348358
N       0.027095   -2.371229   -2.699899
C       0.014531   -2.097952   -1.419235
H       0.857235    1.830265   -0.540682
H      -0.924833    1.810798   -0.554719
H      -0.046033    1.832174    0.999818
H      -0.008424   -1.729949    1.147323
H      -0.034799   -0.671777    3.135398
H      -0.005104    0.839530   -2.821121
H       0.017606   -2.918827   -0.718284
