20

C      -0.082612    1.486797   -0.159737
C       0.047748   -0.016533   -0.042019
N       1.201180   -0.867575   -0.392402
C       2.502774   -0.242534    0.060734
C       3.085438    0.889050   -0.770477
C       1.998606   -0.044604    1.513393
C       0.703977   -0.745761    1.074730
C       0.087564   -1.809749    1.795164
C      -0.427975   -2.687338    2.437819
H       0.671685    2.039006    0.402143
H      -0.028435    1.801319   -1.207227
H      -1.063688    1.785678    0.224520
H      -0.847668   -0.528091   -0.391589
H       3.219354   -1.069546    0.049218
H       2.485382    1.799887   -0.748543
H       4.087938    1.138824   -0.405865
H       3.180229    0.571214   -1.814266
H       2.564723   -0.612202    2.252234
H       1.876970    0.979910    1.877047
H      -0.884674   -3.467798    2.994393
