17

C      -0.122655    1.525357    0.023320
C       0.026242    0.029463   -0.026479
C       0.775652   -0.685909   -1.178166
C      -0.345478   -1.718237   -0.967009
C      -0.008835   -2.671120    0.164700
O       0.496931   -1.950799    1.307608
C       0.503036   -0.591893    1.292796
O       0.883342    0.022714    2.248810
O      -1.197692   -0.685398   -0.401327
H       0.836590    1.990832    0.263105
H      -0.476307    1.896756   -0.941626
H      -0.836332    1.811872    0.800134
H       0.665743   -0.142106   -2.117608
H       1.812618   -0.991592   -1.024342
H      -0.795011   -2.228739   -1.822526
H      -0.905583   -3.209120    0.488939
H       0.757270   -3.397613   -0.127867
