21

C      -0.634067    1.373096    0.026351
C       0.145958    0.062170   -0.021365
C       1.230538    0.003542   -1.105730
O       2.165077   -0.987256   -0.692333
C       2.010763   -1.264804    0.702462
C       3.376597   -1.183349    1.405088
C       4.319712   -2.204576    0.968002
C       5.086922   -3.060011    0.616611
C       0.982919   -0.252621    1.228591
H       0.036436    2.222613    0.200141
H      -1.166340    1.554460   -0.913497
H      -1.377274    1.363885    0.829912
H      -0.552566   -0.767866   -0.189399
H       0.841669   -0.273120   -2.091789
H       1.729082    0.982361   -1.202660
H       1.627445   -2.290112    0.808626
H       3.795504   -0.184773    1.228348
H       3.215858   -1.273213    2.487865
H       5.767957   -3.809184    0.297622
H       1.489135    0.657387    1.577217
H       0.394205   -0.647238    2.060754
