17

C       0.114966    1.518284    0.120503
C       0.056557    0.064573    0.085272
C       0.013029   -1.139336    0.070001
C      -0.026388   -2.575094    0.016789
N      -0.655603   -3.296061    1.152175
C      -1.300237   -3.343843   -0.155788
C      -2.634109   -2.626130   -0.270414
C      -3.749799   -3.475903    0.144078
N      -4.622092   -4.164345    0.460577
H       1.150608    1.872786    0.079743
H      -0.422016    1.961139   -0.725464
H      -0.333340    1.907919    1.040839
H       0.852020   -3.036744   -0.430375
H      -0.151058   -4.157827    1.341693
H      -1.231647   -4.264635   -0.731332
H      -2.611897   -1.725804    0.349882
H      -2.800937   -2.306818   -1.305797
