18

C      -0.055255    1.562703   -0.091906
C       0.102086    0.057970   -0.002490
N       1.347735   -0.605620   -0.669301
C       2.131972   -0.145017    0.572774
C       0.802033   -0.652065    1.171589
O       0.343002   -0.667224    2.470969
C       1.008156   -1.848874    0.150784
C      -0.118631   -2.748826   -0.262243
O      -0.913761   -2.553301   -1.147561
H      -0.179641    1.855051   -1.139391
H      -0.962387    1.857558    0.445369
H       0.775244    2.135569    0.324612
H      -0.808138   -0.419477   -0.361224
H       3.036436   -0.731816    0.754833
H       2.347369    0.921597    0.591014
H       1.024545   -1.036064    3.044309
H       1.888521   -2.470029    0.356911
H      -0.167109   -3.677445    0.353789
