20

C      -0.552327    0.636497   -2.090128
N      -0.121665   -0.328174   -1.086908
C       1.281790   -0.452030   -0.724429
C       2.385433    0.369119   -1.356433
O       2.636448   -0.029933   -2.698723
C       0.282057    0.106703    0.264960
C       0.296360    1.572287    0.681901
C      -0.174312   -0.767177    1.325305
C      -0.537150   -1.466550    2.233653
H      -0.059993    1.617375   -2.058873
H      -0.363630    0.204487   -3.076516
H      -1.629514    0.794038   -1.980407
H       1.580615   -1.490088   -0.561107
H       2.136065    1.429744   -1.413049
H       3.291476    0.281881   -0.736161
H       2.850104   -0.969073   -2.692411
H       0.651375    2.238978   -0.104006
H      -0.712279    1.887460    0.965961
H       0.941748    1.701788    1.555420
H      -0.865287   -2.096304    3.023003
