22

C       0.133126    1.484382    0.243729
C       0.022699   -0.014564   -0.048122
C      -1.406335   -0.531987    0.018758
C      -1.589313   -2.034105   -0.258723
C      -2.843806   -2.371588    0.546577
C      -3.952123   -3.201043    0.019940
N      -3.080969   -3.709870    1.100460
C      -3.072052   -1.161529    1.459844
O      -1.905096   -0.362072    1.345954
H       1.175003    1.816716    0.210590
H      -0.428448    2.072301   -0.490933
H      -0.269812    1.712647    1.233633
H       0.422488   -0.236677   -1.045522
H       0.625027   -0.583506    0.670886
H      -2.038320    0.044111   -0.682702
H      -1.682288   -2.261830   -1.323974
H      -0.726779   -2.584668    0.137327
H      -4.977561   -2.998782    0.321272
H      -3.851878   -3.621712   -0.977865
H      -2.406957   -4.369495    0.717367
H      -3.961339   -0.594437    1.138878
H      -3.198801   -1.454243    2.504960
