15

C      -0.053975    1.573328    0.002383
C       0.000443    0.081116   -0.035054
C      -0.076034   -0.774149   -1.095418
N       0.024485   -2.061406   -0.611591
C      -0.010029   -3.222322   -1.379747
O       0.077431   -4.339954   -0.955727
N       0.166279   -2.078614    0.750700
C       0.150776   -0.807618    1.080295
O       0.266271   -0.391479    2.350311
H       0.860089    1.993411    0.435730
H      -0.175244    1.989051   -1.000937
H      -0.888371    1.924988    0.618732
H      -0.192860   -0.586047   -2.151724
H      -0.130742   -2.964488   -2.449076
H       0.353600   -1.176877    2.907166
