23

C       0.039953    1.548703   -0.059611
C       0.042694    0.031858    0.048343
O       0.733053   -0.500928   -1.083184
C       1.191419   -1.803356   -0.747577
C       1.496383   -1.775612    0.743647
C       1.626199   -3.092940    1.465773
C       2.257177   -0.545978    1.183537
C       0.746388   -0.564791    1.267704
C       0.030862   -0.509452    2.594312
H       1.059184    1.942280   -0.010974
H      -0.406207    1.860370   -1.008167
H      -0.544380    1.990105    0.753877
H      -1.001868   -0.331750    0.051141
H       0.418716   -2.564382   -0.954382
H       2.060658   -2.019249   -1.379443
H       2.495798   -3.655863    1.106243
H       1.755154   -2.952418    2.543054
H       0.740471   -3.721272    1.314018
H       2.800784   -0.612360    2.120910
H       2.734643    0.069381    0.426966
H      -0.068806    0.523156    2.948867
H      -0.978543   -0.932115    2.521895
H       0.570504   -1.065620    3.366303
