18

O       0.130876    1.361085    0.180698
C       0.076440   -0.023441   -0.126541
C      -1.330752   -0.551628   -0.155449
N      -2.014076   -0.952982    1.101224
C      -1.706696   -1.974284    0.081302
C      -2.871619   -2.354832   -0.834701
C      -3.206325   -1.082663   -1.610795
O      -3.665931    0.008875   -0.811608
C      -2.292738   -0.001835   -1.198290
H      -0.388483    1.505823    0.979126
H       0.542503   -0.120951   -1.113971
H       0.677973   -0.623322    0.577196
H      -1.317164   -1.026006    1.842602
H      -0.960422   -2.727052    0.320129
H      -2.553880   -3.136664   -1.533790
H      -3.733626   -2.730510   -0.275248
H      -3.650271   -1.150552   -2.601902
H      -1.969950    0.811529   -1.841646
