15

O       0.110858    1.376368   -0.161955
C       0.037645   -0.041112   -0.009058
C       0.743912   -0.508915    1.247784
C       0.096418   -0.634144    2.408399
C      -1.352581   -0.313970    2.522207
O      -1.756381    0.970717    2.006836
C      -2.167142   -0.198508    1.284900
C      -1.433457   -0.486494    0.004274
O      -1.964694   -1.063684   -0.912935
H      -0.294553    1.751648    0.632552
H       0.497882   -0.466109   -0.903645
H       1.813109   -0.685435    1.184634
H       0.611558   -0.937610    3.314266
H      -1.862723   -0.591338    3.441316
H      -3.232117   -0.417475    1.292357
