19

C       0.015021    1.520468    0.037217
C      -0.085628    0.031126   -0.025831
C      -0.020322   -0.779362   -1.096487
C      -0.037719   -2.196778   -0.668034
C       0.881579   -2.556140    0.565439
O       1.353419   -1.403392    1.220903
C      -0.037214   -0.859378    1.193767
C      -0.564328   -2.263570    0.751717
C      -1.746240   -3.030936    1.257170
H       0.933139    1.836114    0.548819
H       0.020908    1.961298   -0.963574
H      -0.822500    1.958459    0.595439
H       0.126520   -0.460417   -2.122105
H      -0.251319   -3.011616   -1.350747
H       1.491877   -3.451195    0.604191
H      -0.303074   -0.444571    2.166840
H      -2.686347   -2.535102    0.988560
H      -1.766885   -4.035293    0.821672
H      -1.720019   -3.140314    2.347136
