25

C       0.136104    1.575023   -0.073702
C       0.053830    0.050496    0.042478
C      -1.387243   -0.476014    0.018440
C      -1.485949   -2.002253    0.087382
C      -0.940913   -2.644974    1.392251
C      -1.756873   -3.909416    1.513479
C      -2.807868   -3.901893    0.695941
C      -2.916254   -2.612891   -0.091479
C      -4.081243   -1.749680    0.429243
H       1.173835    1.922977   -0.057693
H      -0.318414    1.926122   -1.007009
H      -0.391400    2.064325    0.752844
H       0.620010   -0.410919   -0.777930
H       0.546783   -0.270835    0.968527
H      -1.946005   -0.027085    0.850597
H      -1.875615   -0.122593   -0.900590
H      -0.881893   -2.411082   -0.733702
H       0.137252   -2.834679    1.343602
H      -1.095354   -1.992826    2.265832
H      -1.509973   -4.702668    2.211125
H      -3.557235   -4.684302    0.629571
H      -3.103666   -2.808748   -1.155484
H      -3.950768   -1.498672    1.487113
H      -4.177634   -0.816523   -0.134421
H      -5.027869   -2.292554    0.335810
