17

C      -0.156501    1.546155    0.159338
C      -0.126726    0.041005    0.194634
O       1.072011   -0.594163   -0.289200
C       0.751506   -0.727502    1.083500
C       1.615923   -0.238615    2.250551
C       1.005208   -1.394500    3.100216
C       0.473148   -2.055602    1.792606
H       0.779351    1.964582    0.538137
H      -0.300187    1.904183   -0.865544
H      -0.984008    1.929118    0.767037
H      -1.042254   -0.450088   -0.143483
H       2.680193   -0.388220    2.045810
H       1.466637    0.785309    2.602328
H       1.702672   -1.983495    3.697715
H       0.196251   -1.047806    3.747280
H      -0.554055   -2.428613    1.787647
H       1.136915   -2.844613    1.426259
