16

O       0.090757    1.333210   -0.286342
C       0.058720   -0.052354   -0.000530
C      -1.404764   -0.557483   -0.005802
O      -2.023594   -0.164201   -1.206398
C      -1.461035   -2.096156    0.088892
C      -2.813395   -2.630300    0.149177
C      -3.927146   -3.074113    0.209012
C      -2.087195    0.075571    1.156748
N      -2.546211    0.639280    2.055464
H      -0.206930    1.809990    0.498298
H       0.590272   -0.549248   -0.817346
H       0.552715   -0.294911    0.948856
H      -1.706833    0.734019   -1.384355
H      -0.941874   -2.482247   -0.796022
H      -0.890751   -2.416047    0.969550
H      -4.915176   -3.459928    0.261111
