20

C       0.094122    1.587571   -0.104135
C      -0.002159    0.062171   -0.014159
C       0.628817   -0.543363    1.262332
C      -0.101007   -0.121137    2.544130
C       0.708724   -2.038993    1.138444
C       0.067616   -3.037573    1.836401
N       0.523327   -4.182007    1.271367
N       1.396843   -3.928940    0.281711
N       1.508289   -2.635698    0.200776
H       1.136014    1.921402   -0.039521
H      -0.308110    1.944176   -1.057437
H      -0.465429    2.087364    0.692920
H      -1.053421   -0.251184   -0.070106
H       0.498976   -0.385581   -0.878339
H       1.662483   -0.174573    1.316102
H      -1.152807   -0.430170    2.518633
H       0.362209   -0.567952    3.429554
H      -0.079579    0.963763    2.671568
H      -0.636389   -3.033727    2.650389
H       0.299727   -5.137054    1.500558
