23

C       0.344475    1.437391   -0.395517
C       0.023261   -0.032146   -0.040302
C      -1.466349   -0.150795    0.320129
C       0.407074   -0.922138   -1.211425
C       1.529875   -1.604109   -0.999630
C       2.108792   -1.324567    0.365520
C       0.938719   -0.615640    1.092612
C       1.375183    0.360673    2.173929
O       2.059902   -0.389836    3.170622
H       1.405482    1.574252   -0.624917
H      -0.225100    1.746299   -1.278845
H       0.077047    2.117827    0.420709
H      -2.100260    0.225838   -0.490734
H      -1.744504   -1.192465    0.508432
H      -1.703229    0.430526    1.218865
H      -0.173862   -0.930618   -2.128967
H       2.007496   -2.261935   -1.718123
H       2.436705   -2.224470    0.894769
H       2.995806   -0.677306    0.291779
H       0.355460   -1.395384    1.597767
H       2.031463    1.135802    1.749083
H       0.496836    0.871215    2.601983
H       2.384482    0.222554    3.837047
