17

C       0.014555    1.482518   -0.026202
C      -0.044214   -0.004956   -0.053191
N      -1.058554   -0.721901    0.226290
C      -0.649340   -2.131442    0.050643
C      -1.543900   -2.823914   -0.989709
C       0.850059   -2.031822   -0.397134
O       1.112999   -0.619297   -0.416662
C      -0.761549   -2.833840    1.342505
N      -0.827680   -3.406094    2.344073
H       0.782198    1.812555    0.680414
H       0.291082    1.867489   -1.012381
H      -0.953817    1.883433    0.269501
H      -1.457649   -2.297425   -1.944091
H      -1.245144   -3.867020   -1.127820
H      -2.586477   -2.794081   -0.667446
H       1.543531   -2.510315    0.296654
H       1.003829   -2.432377   -1.402928
