17

O       0.844415    0.483682    0.495964
C      -0.075441    0.410596   -0.579223
C      -1.390536   -0.224267   -0.160203
C      -2.364547    0.621039    0.568960
O      -3.475519    0.254253    0.884092
C      -2.002679   -1.387304   -0.934336
O      -1.312722   -1.785617   -2.090124
C      -1.330446   -1.692188    0.356074
O      -0.099648   -2.337101    0.312605
H       1.011819   -0.428655    0.763725
H      -0.255477    1.443539   -0.897261
H       0.342092   -0.119292   -1.443857
H      -1.994562    1.634031    0.836210
H      -3.088355   -1.392723   -0.986783
H      -1.751620   -2.569015   -2.439033
H      -1.915698   -1.919812    1.240476
H       0.061109   -2.548798   -0.619796
