19

C      -0.070925    1.502885    0.345669
C      -0.016077   -0.019878    0.519329
C      -1.363136   -0.661072    0.256779
C      -1.823151   -1.100884   -1.093082
O      -0.842812   -1.188748   -2.105620
C      -0.004127   -2.313332   -1.885845
C      -0.427557   -2.957017   -0.557990
O       0.042574   -3.964030   -0.093258
C      -1.579197   -2.158571   -0.040283
H       0.899498    1.957794    0.565304
H      -0.345620    1.767418   -0.680067
H      -0.809779    1.952842    1.017969
H       0.742348   -0.430127   -0.153281
H       0.306444   -0.268901    1.537357
H      -2.160538   -0.270874    0.887190
H      -2.806997   -0.854175   -1.477545
H      -0.126420   -3.045259   -2.695928
H       1.050440   -2.013607   -1.857518
H      -2.353491   -2.689824    0.498238
