21

C      -0.166943    1.538276    0.088545
C      -0.077533    0.026826    0.246848
C       0.917096   -0.672907   -0.715929
N       1.911436   -0.695066    0.370035
C       2.863032   -1.783471    0.461103
C       0.868569   -0.492498    1.400328
C       1.263956    0.426536    2.554110
C       0.341510   -1.766598    1.938987
N      -0.039312   -2.783610    2.337951
H       0.825366    1.990409    0.003117
H      -0.724499    1.782253   -0.821788
H      -0.687913    2.004716    0.930686
H      -1.074264   -0.415226    0.275445
H       0.574630   -1.673538   -1.022697
H       1.232715   -0.115311   -1.604777
H       3.525291   -1.747631   -0.409802
H       3.482310   -1.663430    1.355787
H       2.389198   -2.778707    0.498860
H       1.649823    1.369134    2.163034
H       0.407904    0.626951    3.205370
H       2.044806   -0.040733    3.161643
