20

C       0.365428    1.518231   -0.166548
C      -0.070651    0.070496    0.091401
C       0.374326   -0.894961   -1.047177
C       1.690825   -1.541166   -0.549029
N       1.501302   -1.594205    0.896570
C       0.599424   -0.509042    1.368775
C      -0.145217   -1.556196    2.243478
C       0.747742   -2.593297    1.529632
O       0.787384   -3.788514    1.436662
H       1.450972    1.587698   -0.302809
H      -0.109838    1.917182   -1.068030
H       0.095513    2.168962    0.671782
H      -1.160373    0.049114    0.194336
H      -0.372214   -1.683207   -1.188705
H       0.489828   -0.377682   -2.003756
H       1.854830   -2.548415   -0.937502
H       2.567069   -0.930574   -0.793017
H       1.120473    0.269086    1.934010
H      -0.010937   -1.470089    3.323635
H      -1.207159   -1.688128    2.021953
