21

C      -0.196757    1.401811   -0.162720
C       1.242341    1.027845    0.088842
C       0.180528   -0.044609    0.048772
C      -0.228405   -0.769016    1.311430
C      -1.657550   -1.325515    1.221105
O      -1.981521   -2.087620    2.376353
C      -1.060842   -3.127267    2.569443
O       0.248741   -2.666822    2.766371
C       0.711097   -1.940653    1.635324
H      -0.734242    1.905821    0.633948
H      -0.479958    1.720795   -1.159482
H       1.943292    1.091102   -0.735873
H       1.668690    1.281375    1.054009
H       0.174677   -0.667397   -0.843625
H      -0.195489   -0.071868    2.158495
H      -2.396421   -0.522844    1.154381
H      -1.754097   -1.954075    0.317707
H      -1.356717   -3.654322    3.478655
H      -1.087531   -3.815116    1.700554
H       0.780844   -2.612396    0.761005
H       1.718982   -1.591614    1.874072
