21

C      -0.013878    1.312236   -0.181497
O      -0.040435   -0.030887    0.246298
C      -1.299447   -0.643061    0.119449
C      -1.680671   -1.150627   -1.306522
C      -0.500987   -2.141774   -1.576365
C      -0.243814   -2.773556   -0.176245
C      -1.303962   -2.063175    0.729660
C      -2.671448   -2.520889    0.263182
C      -2.894493   -1.979849   -0.941271
H       0.989067    1.697003    0.018762
H      -0.220492    1.412297   -1.257148
H      -0.745491    1.925716    0.367131
H      -2.086274   -0.004849    0.546231
H      -1.828340   -0.399346   -2.083361
H      -0.765911   -2.879197   -2.337279
H       0.379251   -1.595424   -1.924057
H      -0.375302   -3.857839   -0.166355
H       0.764410   -2.546523    0.177018
H      -1.103875   -2.128925    1.799285
H      -3.299090   -3.225135    0.795212
H      -3.745542   -2.147462   -1.590101
