21

C      -0.019864    1.561772   -0.029549
C       1.281895    0.810326    0.001568
C       2.166214    0.796405    1.237948
C       1.365005    0.706993    2.544825
C       0.431104   -0.507677    2.558178
C      -0.931880   -0.297046    3.247359
O      -1.594824   -0.145542    1.974992
C      -0.430959   -0.671452    1.278288
C      -0.035349    0.051148    0.015421
H      -0.358057    2.085447    0.856553
H      -0.315674    2.035162   -0.959055
H       1.832001    0.776567   -0.934753
H       2.853930   -0.058216    1.171872
H       2.793823    1.695847    1.253320
H       2.048694    0.661966    3.399378
H       0.780186    1.625009    2.673856
H       0.977987   -1.408389    2.849763
H      -1.301333   -1.172247    3.800485
H      -1.040778    0.594472    3.876756
H      -0.595883   -1.732909    1.043396
H      -0.317723   -0.450349   -0.904629
