17

C       0.082256    1.368690    0.141766
N      -0.191989   -0.026547   -0.133877
C       0.541245   -0.645817   -1.136553
C       1.236890   -0.087538   -2.183188
N       1.720916   -1.179083   -2.898543
C       1.319214   -2.309068   -2.260621
C       1.657554   -3.684835   -2.730209
N       0.603758   -2.019141   -1.190485
H       1.145046    1.578531    0.350219
H      -0.214926    1.982816   -0.716658
H      -0.513414    1.692619    0.998430
H      -0.256817   -0.613510    0.685567
H       1.423813    0.926274   -2.489120
H       2.279789   -1.133140   -3.732956
H       2.740526   -3.852149   -2.765262
H       1.220774   -4.406153   -2.038608
H       1.260314   -3.884679   -3.732306
