19

C      -0.116979   -1.100369   -0.466987
C      -0.091929    0.069895   -0.189350
C      -0.045612    1.473177    0.153894
C       0.053813    1.865397    1.651798
O       1.205083    2.688203    1.401252
C       1.307453    2.253634    0.037605
C       2.588222    1.534087   -0.436994
C       2.461479    2.300820   -1.782852
C       1.500935    3.299272   -1.077740
H      -0.147509   -2.133007   -0.712658
H      -0.849936    2.014766   -0.353120
H      -0.788317    2.438402    2.054093
H       0.279567    1.025839    2.318996
H       3.441448    1.880169    0.153183
H       2.575853    0.442577   -0.455563
H       3.376809    2.710714   -2.212760
H       1.951499    1.706942   -2.545342
H       0.611131    3.643154   -1.612540
H       2.034703    4.167923   -0.680952
