20

C      -0.288488    1.564603   -0.416430
C      -0.902354    0.195462   -0.693852
C      -1.204086   -0.589735    0.567836
O      -0.994096   -0.151879    1.676493
C      -1.770906   -2.013218    0.408791
C      -2.890102   -2.273296    1.420495
O      -2.172841   -2.192614   -0.936708
C      -2.326002   -3.536662   -1.334128
H      -0.097503    2.097331   -1.352235
H      -0.954443    2.174571    0.199421
H       0.655656    1.470016    0.126616
H      -1.836796    0.271685   -1.263896
H      -0.255701   -0.424020   -1.328636
H      -0.923872   -2.689115    0.630083
H      -3.772124   -1.677932    1.165346
H      -3.175689   -3.328025    1.440130
H      -2.547110   -1.982794    2.415138
H      -2.527398   -3.532506   -2.408121
H      -1.410565   -4.119548   -1.146661
H      -3.162615   -4.033926   -0.823954
