18

N      -0.250923    1.334240    0.210095
C      -0.094942    0.071482    0.257646
O      -1.079726   -0.636439    0.870543
C      -1.149407   -2.037241    0.674210
C      -1.673105   -2.586092   -0.677148
C      -0.603483   -3.708394   -0.576716
C       0.160324   -2.845996    0.485403
C       1.229354   -1.989845   -0.104571
C       1.082262   -0.668426   -0.231873
H       0.564822    1.764502   -0.223246
H      -1.741368   -2.409787    1.512526
H      -2.723055   -2.879776   -0.723579
H      -1.462194   -1.892666   -1.494180
H      -0.997380   -4.627496   -0.136621
H      -0.057063   -3.960180   -1.487823
H       0.537450   -3.392774    1.355983
H       2.137889   -2.478092   -0.450751
H       1.858716   -0.058664   -0.682929
