17

C      -0.208909    1.500777   -0.103537
N       0.051630    0.077571    0.049186
C       1.386009   -0.513274   -0.136612
C       2.588145    0.373765   -0.049924
C       2.700830    0.940021    1.163884
C       1.620739    0.454130    2.032630
N       1.385486    0.673409    3.271913
O       2.327949    1.542975    3.831605
C       0.741930   -0.456000    1.222216
H       0.613214    2.163948    0.196408
H      -0.446841    1.697578   -1.153687
H      -1.088177    1.750785    0.497662
H       1.412360   -1.405822   -0.754722
H       3.249497    0.552952   -0.889414
H       3.436857    1.665081    1.480734
H       2.035205    1.600897    4.747563
H       0.264625   -1.296750    1.714324
