22

C       0.146041    1.244561    0.309250
C       0.272335   -0.280699    0.204122
C       0.894234   -0.717343   -1.098554
C       2.303463   -0.334468   -1.585743
C       1.659836   -1.088597   -2.739220
C       0.917931   -2.108294   -1.827281
C      -0.365057   -1.776174   -2.592652
C      -1.767424   -1.949965   -2.041646
N       0.290808   -0.391568   -2.517529
H       1.126135    1.729347    0.261284
H      -0.459543    1.636957   -0.512518
H      -0.323485    1.532288    1.254465
H       0.905329   -0.661557    1.017249
H      -0.709164   -0.741949    0.343347
H       2.488441    0.730821   -1.748898
H       3.144087   -0.819849   -1.081958
H       2.015408   -1.261210   -3.756676
H       1.295208   -3.062848   -1.440536
H      -0.350171   -2.124819   -3.634847
H      -2.468825   -1.326187   -2.606375
H      -2.085776   -2.992583   -2.152851
H      -1.857310   -1.687085   -0.986814
