22

C      -0.907975    1.094969    0.141615
C       0.026691   -0.088769   -0.058096
C       1.393035    0.143322   -0.762360
C       2.024368   -0.881931    0.216174
O       3.303080   -0.650270    0.739046
C       0.793858   -0.691984    1.161543
N       1.122673    0.304133    2.170635
C       0.207658    0.418842    3.303798
C       1.538849   -0.220810    3.471611
H      -0.404762    1.902430    0.680521
H      -1.240304    1.488292   -0.825434
H      -1.802989    0.814732    0.708530
H      -0.509842   -0.904079   -0.556266
H       1.466170   -0.056208   -1.834066
H       1.774099    1.149406   -0.560740
H       2.038686   -1.888471   -0.211468
H       3.242422    0.176671    1.233216
H       0.361214   -1.601300    1.610074
H       0.028038    1.426125    3.667826
H      -0.664275   -0.232364    3.315408
H       1.567616   -1.301547    3.593561
H       2.346868    0.313218    3.962989
