18

C      -0.257514    1.488670   -0.085434
N       0.055345    0.068932   -0.082409
C       0.690643   -0.509223   -1.263154
C       2.137070   -0.070919   -1.446883
C       1.805946   -1.107644   -0.424447
O       2.422615   -2.336697   -0.431871
C       1.152919   -0.453381    0.814830
C       1.943537    0.500444    1.572006
C       2.592570    1.299911    2.194017
H       0.589815    2.144203   -0.341345
H      -1.056926    1.662375   -0.813152
H      -0.626840    1.783255    0.900934
H       0.094955   -0.926300   -2.067689
H       2.613650   -0.482048   -2.331378
H       2.479407    0.918506   -1.157732
H       1.795768   -2.996878   -0.114009
H       0.732914   -1.205088    1.497010
H       3.172452    1.997146    2.746835
