16

O       0.267210    1.751865    1.592921
C       0.021606    1.587462    0.416186
N       0.907633    1.170432   -0.529814
C       2.265139    0.826516   -0.344986
C       2.920671    0.419936    0.958534
C       3.551096    1.552643    0.221171
C       4.407579    0.998505   -0.925953
C       3.089179    0.453355   -1.527135
O       2.751343    0.166193   -2.645527
H      -0.977543    1.771042   -0.023540
H       0.598252    1.123339   -1.491317
H       2.318253    0.693021    1.816018
H       3.433696   -0.536504    1.031789
H       3.591844    2.561511    0.607598
H       4.839490    1.748592   -1.593207
H       5.178088    0.275089   -0.644308
