25

C      -0.499261    1.373747    0.192935
C       0.146490    0.009686    0.043450
C       0.834350   -0.319129   -1.299682
C       2.134678   -0.386275   -0.465794
O       1.408669   -0.083479    0.752220
C       2.938250   -1.695140   -0.379954
C       3.593346   -1.954195   -1.747369
C       4.024949   -1.502101    0.695443
C       2.042554   -2.880943    0.016850
H       0.165659    2.162797   -0.172632
H      -1.436618    1.417995   -0.373101
H      -0.725141    1.575983    1.244654
H      -0.541784   -0.772006    0.392796
H       0.521280   -1.251376   -1.771416
H       0.801744    0.482594   -2.040189
H       2.836257    0.428657   -0.697492
H       4.235546   -1.118222   -2.047291
H       4.216593   -2.854013   -1.711970
H       2.844143   -2.101152   -2.533039
H       3.572293   -1.256593    1.660379
H       4.620319   -2.413319    0.816654
H       4.708021   -0.688709    0.425727
H       1.288276   -3.100692   -0.745945
H       2.644934   -3.785950    0.147225
H       1.528597   -2.675794    0.959732
