14

C       0.069862    1.290725    0.008663
N       1.310206    1.780996   -0.000387
N       2.050715    0.647320   -0.013675
C       3.408730    0.569942   -0.026983
C       3.987710   -0.667581   -0.039324
C       3.179434   -1.834040   -0.038113
C       1.809631   -1.742470   -0.024613
C       1.214988   -0.464844   -0.011904
N      -0.054699   -0.052199    0.002441
H      -0.780863    1.957132    0.020424
H       3.936115    1.513881   -0.026763
H       5.067336   -0.743769   -0.049988
H       3.655846   -2.807816   -0.048019
H       1.167645   -2.613971   -0.023342
