21

O      -0.117268    1.289185   -0.738999
C       0.016771    0.068008   -0.014864
C      -1.350991   -0.559118    0.068161
C      -1.875602   -1.425284   -1.053502
C      -1.565627   -2.039248    0.287569
C      -0.455308   -3.047520    0.456607
C      -0.748472   -4.500070    0.004300
C       0.494025   -4.324094   -0.887546
O       0.619851   -2.935549   -0.511653
H       0.754776    1.689970   -0.800244
H       0.718222   -0.617258   -0.505614
H       0.395837    0.261414    1.002829
H      -2.081683    0.089290    0.545244
H      -2.909692   -1.317323   -1.360800
H      -1.179296   -1.644507   -1.855680
H      -2.417511   -2.289071    0.917820
H      -0.047794   -2.991941    1.476890
H      -0.690257   -5.269615    0.775092
H      -1.685765   -4.601638   -0.545650
H       1.373208   -4.905251   -0.581598
H       0.347170   -4.443232   -1.966816
