22

C       0.313062    1.412633    0.077597
C      -0.065658   -0.070812    0.114653
C      -1.557985   -0.411055    0.018779
C      -2.527555    0.376348    0.953506
O      -3.272813    0.877630   -0.171168
C      -2.383883    0.245158   -1.114436
N      -1.654366   -1.869772   -0.032191
C      -1.765852   -2.620524    1.211580
C      -2.913386   -2.540092    0.264132
H       1.400659    1.520277    0.131510
H      -0.016698    1.899442   -0.845319
H      -0.110392    1.972388    0.917038
H       0.435308   -0.601813   -0.702926
H       0.317369   -0.518903    1.041172
H      -3.152834   -0.216773    1.631945
H      -2.066489    1.184579    1.533224
H      -1.855567    0.977689   -1.735868
H      -2.903722   -0.468686   -1.763384
H      -1.162845   -3.521751    1.279529
H      -1.856293   -2.066296    2.144788
H      -3.773946   -1.945002    0.560954
H      -3.150600   -3.381397   -0.381212
