21

C      -0.008380    1.423020    0.504589
C       0.127218   -0.019024    0.056605
O       1.202213   -0.558840   -0.060098
C      -1.182058   -0.746015   -0.266878
C      -1.054836   -2.249128   -0.179714
O      -1.500030   -2.866085    1.037035
C      -2.186672   -3.193530   -0.185226
C      -3.624494   -2.726030   -0.272124
C      -1.950181   -4.608937   -0.670971
H       0.972993    1.896643    0.547929
H      -0.668525    1.981558   -0.168201
H      -0.470561    1.452747    1.498648
H      -1.981731   -0.380795    0.382946
H      -1.451238   -0.444531   -1.290900
H      -0.090601   -2.614642   -0.531864
H      -3.752799   -1.717662    0.124168
H      -3.972642   -2.738970   -1.310903
H      -4.271612   -3.398154    0.301933
H      -2.560353   -5.316238   -0.098308
H      -2.222774   -4.710970   -1.727114
H      -0.900937   -4.888956   -0.552273
