17

C      -0.101265    1.663962    0.082507
C      -0.306542    0.149851    0.032483
C       0.640518   -0.615570    0.978265
C       0.438142   -0.287809    2.389143
C       0.235879   -0.057214    3.551675
C       0.465440   -2.134186    0.851394
O      -0.494905   -2.676329    0.365027
C       1.619921   -3.010426    1.361461
O       2.706543   -2.578567    1.638472
H       0.918118    1.938710   -0.210433
H      -0.791515    2.168697   -0.599539
H      -0.275746    2.051964    1.090227
H      -1.337690   -0.108763    0.289588
H      -0.138259   -0.223929   -0.983404
H       1.688053   -0.397545    0.728788
H       0.075244    0.164016    4.578087
H       1.358807   -4.088864    1.392598
