22

C      -0.103813    1.545283    0.066175
C       0.036302    0.047941    0.026087
C      -0.815122   -0.843752    0.893472
C       0.680200   -0.914158    1.030049
C       1.247856   -1.769656   -0.104966
C       0.646143   -0.762267   -1.154484
C      -0.331312   -1.332497   -2.182937
C       1.761955    0.011672   -1.861055
H       0.817240    2.054218   -0.236752
H      -0.906129    1.891196   -0.597840
H      -0.351450    1.884648    1.077597
H      -1.337194   -0.327961    1.694054
H      -1.366844   -1.687533    0.485505
H       1.182289   -0.689655    1.964263
H       2.339727   -1.799380   -0.140298
H       0.871248   -2.797917   -0.150470
H      -1.139436   -1.900248   -1.713346
H      -0.787488   -0.532512   -2.777939
H       0.184737   -2.005796   -2.877537
H       2.316686   -0.649850   -2.536030
H       1.362736    0.838129   -2.460114
H       2.475030    0.431040   -1.143421
