21

C      -0.196123    1.506694    0.069108
C      -0.001175   -0.006175    0.029983
C       1.142553   -0.475342   -0.920550
C       2.079749   -0.610457    0.310520
C       0.825135   -0.598462    1.218003
N       0.908730    0.187088    2.432989
C      -0.047085   -0.144405    3.487410
C       1.387161   -0.517069    3.620007
H       0.749610    2.032793    0.228800
H      -0.624993    1.857132   -0.876330
H      -0.870811    1.800738    0.878768
H      -0.967244   -0.494392   -0.132551
H       0.928661   -1.439987   -1.388645
H       1.445640    0.227376   -1.701009
H       2.733995   -1.483799    0.364214
H       2.679355    0.288689    0.473160
H       0.494065   -1.632003    1.424091
H      -0.452791    0.697917    4.040417
H      -0.755064   -0.950413    3.299600
H       1.638002   -1.572234    3.520592
H       2.047527    0.047778    4.271790
