20

O       0.029412    1.401308   -0.023929
C       0.025382    0.003139   -0.041628
C       0.416124   -0.716453   -1.355625
C      -0.876295   -1.584675   -1.241825
C      -1.324510   -0.774171    0.014957
N      -1.018827   -1.278492    1.395019
C      -0.441890   -2.649749    1.548356
C       1.007416   -2.106324    1.390901
C       0.369662   -0.693563    1.312338
H       0.945535    1.701952   -0.025478
H       0.375434   -0.017659   -2.194628
H       1.374625   -1.241483   -1.383838
H      -1.559867   -1.472178   -2.085804
H      -0.710702   -2.651910   -1.087711
H      -2.298745   -0.286717   -0.056044
H      -0.662573   -3.047071    2.544164
H      -0.777306   -3.386760    0.813203
H       1.665936   -2.268652    2.247048
H       1.530523   -2.434023    0.489174
H       0.649833    0.013926    2.100831
