17

O       0.135370    0.939088    0.550598
C      -0.224410   -0.361355    0.133632
C      -1.729615   -0.426863   -0.235861
N      -2.623141    0.006505    0.833365
C      -2.828221   -0.959667    1.903195
C      -4.030590   -0.561091    2.750184
O      -4.149870   -0.830101    3.915109
C      -1.946013    0.422210   -1.423011
N      -2.043472    1.115077   -2.342623
H       0.157881    1.509459   -0.226948
H       0.385683   -0.715664   -0.708615
H      -0.044112   -1.022641    0.986311
H      -1.986134   -1.458072   -0.509012
H      -2.257387    0.878647    1.206021
H      -3.084062   -1.928509    1.448539
H      -1.972956   -1.133091    2.573212
H      -4.807184   -0.003219    2.181611
