16

O       0.139996    1.301455   -0.320495
C       0.095634   -0.075123    0.009517
C      -1.363414   -0.557793    0.007185
O      -2.007828   -0.146968   -1.189183
C      -1.438972   -2.091916    0.077489
C      -2.803518   -2.612331    0.150617
N      -3.877766   -3.030417    0.224958
C      -2.160015    0.121982    1.133710
O      -1.719591    1.017489    1.814924
H      -0.200199    1.768500    0.455222
H       0.653838   -0.605283   -0.768665
H       0.565381   -0.280607    0.979940
H      -1.619394    0.718057   -1.396711
H      -0.960548   -2.492299   -0.822783
H      -0.875931   -2.455952    0.944711
H      -3.212308   -0.213080    1.222548
