18

C       0.490998    1.424099   -0.278905
C       0.102608   -0.008384    0.033709
O       0.815147   -1.009915   -0.749055
C       1.313782   -1.722625    0.408641
C       2.817357   -1.870167    0.433799
C       3.544694   -2.213510   -0.810436
N       3.666444   -0.867190   -0.214963
C       0.666150   -0.654109    1.309035
O       0.637097   -0.415740    2.476322
H       1.559954    1.592595   -0.119476
H       0.248134    1.664947   -1.317791
H      -0.065205    2.104107    0.373509
H      -0.983140   -0.150152   -0.060570
H       0.831811   -2.705396    0.521744
H       3.191049   -2.234504    1.388638
H       4.442401   -2.822944   -0.764653
H       2.960585   -2.315309   -1.720725
H       3.064183   -0.242325   -0.748729
