21

C       0.131089    1.510211   -0.037991
C       0.217518   -0.003838    0.045935
O       0.398864   -0.512221   -1.269760
C       0.557500   -1.891896   -1.327143
C       1.904089   -2.481088   -0.992611
C       1.396087   -2.489325   -2.433509
C       0.672888   -3.723874   -2.852859
C      -0.444888   -3.904653   -2.144137
C      -0.683007   -2.779130   -1.159501
H       1.048178    1.923676   -0.467381
H      -0.708328    1.812949   -0.670468
H      -0.011625    1.939875    0.958135
H       1.057748   -0.313293    0.686421
H      -0.700670   -0.417515    0.491294
H       2.686627   -1.764018   -0.766509
H       1.970420   -3.426806   -0.463645
H       1.903218   -1.859786   -3.155622
H       1.045313   -4.391539   -3.621436
H      -1.117701   -4.749826   -2.234058
H      -0.812829   -3.144533   -0.133354
H      -1.586420   -2.205848   -1.409664
