17

C      -0.020878    1.473096    0.086559
C       1.305374    0.755237    0.049330
C       2.022458    0.412397    1.372845
C       1.013268   -0.506106    1.984407
C      -0.077411   -0.782469    1.226949
C      -0.905413   -1.637157    2.023755
C      -0.231702   -1.796434    3.199424
O       0.948302   -1.097417    3.198992
C      -0.007676   -0.035736   -0.055764
H      -0.371977    1.885489    1.027342
H      -0.279221    2.061898   -0.788175
H       1.921414    0.895606   -0.830650
H       2.988349   -0.076170    1.189527
H       2.225181    1.303597    1.978956
H      -1.858477   -2.079137    1.777765
H      -0.437298   -2.353046    4.098738
H      -0.323625   -0.485197   -0.990241
