13

C      -0.069280   -1.217600    0.023076
C      -0.048643   -0.017742    0.029332
C      -0.017836    1.422267    0.005668
N       0.510584    2.083219    1.224965
C       1.319401    2.158192    0.008333
C       2.567222    1.436098   -0.002517
N       3.575621    0.873890   -0.049484
C      -1.089588    2.071008   -0.709835
C      -1.986997    2.627233   -1.283414
H      -0.081636   -2.279998    0.026536
H       0.022954    2.965337    1.367897
H       1.335954    3.085944   -0.556514
H      -2.783327    3.107614   -1.797429
