19

C       0.100205    1.412927    0.076693
C       0.029044   -0.067169   -0.057175
C       0.080226   -0.900908   -1.098323
C      -0.011082   -2.277033   -0.443025
C       1.018876   -2.085163    0.800733
C      -0.124768   -1.039149    1.136176
O      -1.032320   -0.523325    2.155790
C      -2.127973   -1.046198    1.288198
C      -1.113889   -2.063193    0.682169
H       1.004334    1.718754    0.619232
H       0.112492    1.901724   -0.901358
H      -0.747085    1.797355    0.654680
H       0.198562   -0.696878   -2.153682
H       0.030122   -3.174094   -1.059984
H       1.068044   -2.946636    1.471021
H       2.013999   -1.709686    0.548029
H      -2.939711   -1.459512    1.890721
H      -2.491563   -0.261885    0.618743
H      -1.101405   -2.927175    1.351709
