24

C      -0.343809    1.402938   -0.108968
C      -0.186928   -0.099475    0.146727
C       0.808506   -0.469123    1.264001
C       0.361827    0.065884    2.633065
C       1.023770   -1.993952    1.289922
C       2.159445   -2.456107    2.211243
N       2.389465   -3.890841    2.132616
C       2.213222   -4.735182    3.183646
O       1.882807   -4.407025    4.303767
H       0.622417    1.868633   -0.334635
H      -1.005674    1.584888   -0.961492
H      -0.770809    1.925165    0.752246
H      -1.167098   -0.535639    0.384669
H       0.140178   -0.582379   -0.783201
H       1.773359   -0.000549    1.013884
H       1.085358   -0.167964    3.419036
H       0.241831    1.152542    2.620072
H      -0.599543   -0.373036    2.926346
H       0.095147   -2.495504    1.592718
H       1.240526   -2.336948    0.268439
H       3.085262   -1.920706    1.960194
H       1.933076   -2.252683    3.259104
H       2.643163   -4.292791    1.243809
H       2.414349   -5.787580    2.898761
