17

C      -0.042329    1.569454    0.114384
C       0.004416    0.033506    0.053233
N       0.648178   -0.474954    1.266448
C      -1.372881   -0.495711    0.019043
N      -2.443613   -0.927715   -0.005834
C       0.717969   -0.459971   -1.267943
O       0.054008   -0.023673   -2.439308
C       2.132668   -0.081077   -1.255618
C       3.281711    0.274579   -1.262315
H       0.977094    1.966250    0.119026
H      -0.580637    1.977592   -0.743596
H      -0.546595    1.884236    1.029093
H       0.647890   -1.491282    1.272376
H       1.619557   -0.174774    1.271120
H       0.639706   -1.553798   -1.276793
H       0.361873    0.864746   -2.648369
H       4.303414    0.566980   -1.280510
