19

C      -0.221505    1.369286   -0.198964
C       1.225982    1.173715    0.168153
C       0.305223   -0.020487    0.073162
C      -0.109100   -0.742453    1.321924
C      -1.226375   -1.839050    1.161934
O      -0.195270   -2.720526    0.604551
C       0.638116   -2.091667    1.634509
C      -0.063772   -2.540142    2.924529
C      -1.347898   -2.366115    2.599066
H      -0.875431    1.818683    0.541582
H      -0.464428    1.632803   -1.222354
H       1.977106    1.302908   -0.603149
H       1.545376    1.491634    1.155522
H       0.436164   -0.667337   -0.787720
H      -0.229713   -0.055131    2.165206
H      -2.109647   -1.717982    0.535718
H       1.710133   -2.235532    1.503902
H       0.398948   -2.879464    3.839189
H      -2.253226   -2.520041    3.166991
