15

C       0.179322    1.469537   -0.021914
C      -0.038353    0.003173   -0.000887
C      -1.148549   -0.804207    0.102488
N      -2.480720   -0.449818    0.274807
N      -0.761180   -2.118553    0.084051
C       0.539283   -2.082859   -0.031175
O       1.042323   -0.823825   -0.096413
C       1.512605   -3.174584   -0.104147
O       1.232189   -4.348375   -0.057552
H       0.963966    1.762322    0.683818
H       0.475255    1.833736   -1.013519
H      -0.741245    1.982721    0.267964
H      -2.780408    0.340543   -0.278575
H      -3.092639   -1.242641    0.134327
H       2.556349   -2.810760   -0.209963
