20

C       0.001558    1.488952    0.127220
C       0.145261   -0.031385    0.029741
C       0.599317   -0.491138   -1.360665
N       0.814234   -1.926502   -1.390972
C       0.123211   -2.604529   -2.188309
O       0.247390   -3.952838   -2.232393
C      -0.447333   -4.634982   -3.259152
C      -0.858229   -6.004466   -2.738179
O      -1.280199   -6.876237   -3.448065
H       0.952844    1.991644   -0.079894
H      -0.735358    1.868676   -0.589509
H      -0.322727    1.791496    1.127264
H       0.868777   -0.394952    0.767756
H      -0.809086   -0.516799    0.268304
H      -0.132364   -0.158031   -2.118911
H       1.552781   -0.002371   -1.601323
H      -0.623119   -2.198599   -2.889959
H      -1.357280   -4.095235   -3.561294
H       0.180195   -4.759280   -4.150781
H      -0.742069   -6.119050   -1.638757
