17

O      -0.009773    1.411584   -0.032698
C       0.010792   -0.000689    0.094800
C      -1.354125   -0.600470   -0.108648
O      -2.116796   -0.932094    1.073231
C      -1.786314   -1.981050    0.119086
C      -2.906693   -2.256981   -0.838408
C      -3.193787   -1.156880   -1.537668
C      -2.290690    0.008752   -1.166157
O      -2.995205    1.124147   -0.625288
H      -0.891577    1.725297    0.202600
H       0.703012   -0.375939   -0.669823
H       0.389690   -0.318780    1.077430
H      -1.140418   -2.762715    0.506761
H      -3.415283   -3.211247   -0.900001
H      -4.006522   -1.041618   -2.245256
H      -1.732022    0.400714   -2.021533
H      -3.411154    0.789622    0.181950
