23

C      -0.157314    1.590713   -0.066359
C      -0.007137    0.062020   -0.001478
C       0.770445   -0.346945    1.261965
C      -1.392323   -0.608603   -0.004681
C       0.768219   -0.443364   -1.227546
O       0.111682   -0.101343   -2.444773
C       1.089492    0.349529   -3.375863
C       2.421656    0.087818   -2.658272
O       2.053274    0.133429   -1.290266
H       0.820690    2.078353   -0.085631
H      -0.707676    1.888862   -0.962914
H      -0.706324    1.955722    0.807626
H       0.226729   -0.034168    2.159383
H       0.900714   -1.433949    1.314734
H       1.761640    0.113160    1.281959
H      -1.953097   -0.346865   -0.905641
H      -1.305877   -1.700487    0.036129
H      -1.970831   -0.288024    0.867769
H       0.860133   -1.545925   -1.182811
H       0.997259   -0.205763   -4.315761
H       0.939597    1.417345   -3.579671
H       2.828392   -0.900620   -2.921389
H       3.183749    0.848022   -2.841604
