15

C       0.036044    1.494204   -0.012556
C       0.028156    0.043195   -0.003380
C       0.019437   -1.167093    0.004713
C       0.007874   -2.525781    0.013913
C      -0.006404   -3.736765    0.023965
C      -0.004039   -5.201289    0.010775
O      -1.277000   -5.770190    0.145718
C       0.644894   -5.652602   -1.306560
O       0.047138   -6.352037   -2.082192
H       0.971839    1.886518    0.401006
H      -0.070452    1.885070   -1.030626
H      -0.788090    1.895472    0.587837
H       0.650589   -5.559055    0.825322
H      -1.457582   -6.199164   -0.706792
H       1.670155   -5.283596   -1.496400
