19

O      -0.388236    1.530853   -0.363962
C      -0.099856    0.149349   -0.201836
C      -1.430653   -0.567224    0.000345
C      -1.280360   -2.080209    0.182610
O      -0.486867   -2.338907    1.315422
C      -2.652826   -2.837222    0.037042
C      -2.314091   -3.182168   -1.447461
C      -0.863387   -2.846911   -1.088331
O       0.206307   -3.272341   -1.428914
H       0.446237    2.005000   -0.420374
H       0.414945   -0.257622   -1.086904
H       0.544285   -0.032925    0.668438
H      -1.921777   -0.164746    0.893988
H      -2.086687   -0.350367   -0.850168
H       0.179346   -2.989326    1.061735
H      -2.669902   -3.724873    0.671843
H      -3.546682   -2.237520    0.212569
H      -2.490336   -4.198249   -1.804512
H      -2.746165   -2.473606   -2.159638
