16

C      -0.026957    1.402096    0.023971
C       1.406155    1.966391    0.024298
C       2.174895    1.265997   -1.053986
C       3.341160    1.481270   -1.713899
O       3.567305    0.501285   -2.605393
N       2.517068   -0.417208   -2.549069
C       1.709941    0.049111   -1.632102
C       0.406238   -0.570815   -1.215555
O      -0.025862   -0.018294    0.017814
H      -0.563238    1.701525    0.927714
H      -0.581974    1.786256   -0.847430
H       1.381552    3.051756   -0.122772
H       1.862179    1.783297    1.004672
H       4.095501    2.251705   -1.667054
H      -0.352832   -0.409230   -1.998696
H       0.506099   -1.648272   -1.062950
