16

N      -0.034914   -1.002394    0.593592
C       0.007647    0.118695    0.317442
C       0.099227    1.543907    0.011905
C       1.570014    2.008220   -0.189131
C       1.730015    3.547716    0.032467
C       2.267393    3.179779    1.438496
N       2.462955    1.793984    0.960065
C       2.088329    1.477570   -1.458500
N       2.482558    1.089563   -2.472800
H      -0.492442    1.768143   -0.881873
H      -0.336880    2.105824    0.844729
H       2.489401    3.978685   -0.618638
H       0.813990    4.135797   -0.028876
H       3.188832    3.672704    1.759023
H       1.514291    3.295963    2.229133
H       2.230015    1.022981    1.577095
