17

C      -0.193113    1.452444   -0.182920
N       0.101146    0.043446    0.039055
C       1.387643   -0.571321   -0.153610
C       2.556495    0.309051    0.334035
C       1.918345    0.305550    1.767971
O       2.594261   -0.538347    2.677700
C       1.646003    1.606821    2.395271
N       1.469227    2.631349    2.901864
C       0.723100   -0.509766    1.203821
H       0.622454    2.147143    0.054122
H      -0.459206    1.582338   -1.235939
H      -1.057962    1.728858    0.425862
H       1.476157   -1.406423   -0.839104
H       3.508069   -0.224163    0.366641
H       2.690204    1.273882   -0.160942
H       3.392266   -0.088926    2.979699
H       0.220864   -1.264292    1.799170
