20

C       1.594416   -2.810978   -1.797688
N       0.766139   -2.012303   -0.922526
C       0.593748   -0.774008   -1.069399
O      -0.221968   -0.099094   -0.165235
C      -0.437442   -0.623264    1.079776
O      -1.226548   -0.128320    1.824063
C       1.093028    0.205049   -2.112227
C      -0.087894    0.821958   -2.885665
C       1.970665    1.291432   -1.463922
H       2.094122   -2.268343   -2.609986
H       2.363070   -3.310918   -1.197974
H       0.978634   -3.601281   -2.241146
H       0.194154   -1.496815    1.283839
H       1.708200   -0.354977   -2.821048
H      -0.690990    0.050812   -3.374335
H      -0.738498    1.388781   -2.215364
H       0.287281    1.500133   -3.658057
H       2.827105    0.855069   -0.940489
H       2.353913    1.969680   -2.232209
H       1.394286    1.879535   -0.745168
