20

C       0.021424    1.563215    0.044062
C       0.046901    0.033882    0.018512
C       0.788583   -0.564921   -1.204142
C       1.288095   -1.958943   -0.761290
C       1.492091   -1.817043    0.733961
N       2.209784   -0.573085    1.126360
C       0.754439   -0.595535    1.212858
C       1.586798   -2.985513    1.628951
O       1.497484   -4.136520    1.277647
H       1.040202    1.960277    0.093910
H      -0.455195    1.961059   -0.857753
H      -0.534550    1.942586    0.908110
H      -0.985059   -0.342768    0.032464
H       0.149626   -0.609701   -2.089741
H       1.644112    0.070269   -1.448292
H       0.536613   -2.736890   -0.931377
H       2.199210   -2.265927   -1.282029
H       2.617022   -0.692483    2.053487
H       0.286666   -0.572673    2.193989
H       1.752047   -2.715800    2.701838
