21

C      -0.004416    1.492723    0.016307
C       1.553264    1.498368   -0.126749
C       1.554468   -0.029799    0.010095
C       0.027624   -0.035258    0.138591
C       0.702694   -0.671953   -1.060144
C       0.591724   -0.199504   -2.522192
C       0.303706   -1.482655   -3.356064
C       0.480264   -2.607765   -2.364707
C       0.687277   -2.159281   -1.127778
H      -0.330631    1.979302    0.938323
H      -0.585878    1.906891   -0.813829
H       1.966791    1.902041   -1.056603
H       2.040989    1.999828    0.712007
H       2.290779   -0.607790    0.557819
H      -0.602611   -0.622749    0.797090
H      -0.189756    0.552627   -2.657224
H       1.531967    0.258937   -2.844805
H      -0.712760   -1.481977   -3.772230
H       0.979126   -1.575662   -4.215018
H       0.418272   -3.652563   -2.647721
H       0.821197   -2.776475   -0.245361
