20

C       0.033198    1.385010    0.025764
O      -0.108963   -0.013382   -0.090396
C       0.627099   -0.594028   -1.152819
C       2.122784   -0.750293   -0.827991
O       2.775779   -1.425708   -1.890356
C       2.423167   -2.797056   -1.975900
C       0.924133   -3.051337   -1.880096
N       0.358585   -3.026840   -0.520347
C       0.023429   -1.944740   -1.457474
H       1.049023    1.687699    0.318131
H      -0.220746    1.898813   -0.914878
H      -0.660506    1.713726    0.803701
H       0.536782    0.030233   -2.057898
H       2.608488    0.224941   -0.742030
H       2.229808   -1.286877    0.124820
H       2.799368   -3.137178   -2.945641
H       2.932511   -3.371861   -1.186440
H       0.526646   -3.782133   -2.580636
H      -0.420129   -3.674468   -0.440406
H      -0.985329   -1.915997   -1.862837
