21

C      -0.342463    1.399651   -0.008725
C       0.071877   -0.061821   -0.085347
C       1.400880   -0.378152   -0.803977
O       1.960441   -0.965109    0.389618
C       0.767077   -0.713260    1.142116
C       0.865353   -0.004500    2.513403
C      -0.254767   -0.946591    3.033175
C       0.079710   -1.898636    1.850512
O      -0.956150   -2.512291    1.122475
H       0.480954    2.036234    0.332236
H      -0.654263    1.761324   -0.994772
H      -1.186172    1.543757    0.674862
H      -0.757465   -0.677249   -0.438340
H       1.346277   -1.099329   -1.627886
H       1.974483    0.498463   -1.133207
H       1.833923   -0.215716    2.974831
H       0.685591    1.071355    2.545804
H      -0.165011   -1.340265    4.047624
H      -1.249276   -0.511220    2.901915
H       0.854343   -2.622367    2.142680
H      -1.252647   -3.290748    1.603177
