19

C      -0.043319    1.289796    0.144057
O      -0.061987   -0.099255   -0.115825
C       0.693848   -0.562704   -1.231105
C       0.240783    0.023836   -2.555799
C       2.216801   -0.591222   -0.886561
C       1.974957   -1.987914   -0.273190
O       2.518806   -2.627286    0.576293
C       0.646233   -2.126104   -1.059846
O      -0.482852   -2.716448   -0.514945
H       0.979118    1.680103    0.241449
H      -0.563140    1.862237   -0.634809
H      -0.564361    1.437303    1.092717
H       0.432849    1.099271   -2.619756
H       0.775650   -0.455244   -3.381181
H      -0.831391   -0.145583   -2.696361
H       2.857982   -0.631453   -1.772788
H       2.596478    0.172327   -0.205771
H       0.858602   -2.611912   -2.020792
H      -0.759223   -2.143055    0.212041
