15

N       0.041327    1.420073    0.036839
C      -0.007693   -0.017040   -0.045027
C      -0.723076   -0.789487    1.047264
C      -1.307721   -0.766381   -0.339861
O      -2.398909    0.083352   -0.596417
C      -3.624339   -0.364636   -0.213721
O      -4.613862    0.271168   -0.398310
C       1.193881   -0.608181   -0.589771
N       2.136604   -1.097865   -1.045540
H       0.164927    1.811150   -0.893666
H      -0.848339    1.770863    0.377586
H      -0.279605   -1.709947    1.406799
H      -1.208670   -0.183902    1.805597
H      -1.277050   -1.660314   -0.955176
H      -3.583833   -1.357096    0.270697
