17

O      -0.083329    1.346927   -0.024560
C       0.005988   -0.041905   -0.059792
C       0.986713   -0.725645   -0.954391
C       0.563937   -1.968412   -1.201737
C      -0.684756   -2.231782   -0.382869
O      -1.598045   -3.184912   -0.840499
C      -0.232659   -2.293302    1.139414
C      -0.483079   -0.793367    1.215051
C      -1.273757   -0.820488   -0.076106
H       0.579707    1.676673    0.591045
H       1.910126   -0.265554   -1.284059
H       1.095960   -2.744595   -1.740452
H      -1.131805   -4.018215   -0.967134
H      -0.996600   -2.830230    1.708402
H       0.763494   -2.689566    1.364816
H      -0.679959   -0.213066    2.109251
H      -2.247598   -0.429949   -0.341247
