16

C      -0.084356    1.404133   -0.007014
N      -0.059780   -0.044652   -0.006123
C       0.605072   -0.621014   -0.934313
N       1.335900   -0.015546   -1.931601
C       0.642906   -2.113272   -0.935876
N       1.246400   -2.668741   -1.932161
O       1.241459   -4.045943   -1.876234
C       0.025385   -2.829725    0.126164
C      -0.477896   -3.483578    1.000908
H       0.926704    1.839985    0.027392
H      -0.585680    1.814744   -0.900148
H      -0.636362    1.760105    0.866050
H       1.083321    0.925230   -2.184486
H       1.628376   -0.615298   -2.687704
H       1.724240   -4.293306   -2.673517
H      -0.929543   -4.041036    1.784052
