19

C      -0.306493    1.304162   -0.119511
O      -0.041084   -0.091992    0.020895
C       0.661289   -0.614136   -1.045856
C       2.129794   -0.407812   -1.378101
O       2.217409   -1.768421   -1.880550
C       0.870811   -2.058661   -1.460380
C       0.563874   -3.399760   -0.889623
C      -0.080651   -1.180270   -2.247793
O      -1.443434   -1.390893   -2.022412
H       0.624487    1.885521   -0.121989
H      -0.859096    1.515264   -1.043908
H      -0.908209    1.599237    0.742178
H       2.393953    0.334375   -2.140395
H       2.760463   -0.276559   -0.489791
H       1.095106   -3.574200    0.050723
H      -0.511677   -3.487113   -0.718642
H       0.860208   -4.178424   -1.601422
H       0.153382   -0.892029   -3.271937
H      -1.655858   -0.988292   -1.169683
