14

C      -0.075394   -1.216980    0.004708
C      -0.066218   -0.016017    0.038223
C      -0.018126    1.436116    0.033582
N      -0.565747    1.930867    1.372899
C       0.291151    2.817802    1.656995
O       1.285963    2.605629    2.622589
C       2.131433    2.554945    1.386286
C       1.423835    2.032840    0.031293
C       1.262705    3.407591    0.583976
H      -0.092679   -2.278646   -0.015563
H      -0.573218    1.820333   -0.835635
H       3.199263    2.525534    1.564453
H       2.104712    1.806582   -0.785517
H       1.342794    4.402670    0.169650
