15

C      -0.047696    1.500250    0.032532
N      -0.091605    0.054837    0.113075
C      -1.211752   -0.663202   -0.052972
O      -2.333900   -0.236999   -0.289535
C      -0.944235   -2.181476    0.090296
O       0.153464   -2.628138    0.323582
N      -2.117833   -2.882206   -0.086844
C      -2.315210   -4.259811   -0.039540
O      -1.470846   -5.085315    0.169115
H       0.622015    1.828021   -0.769204
H      -1.057919    1.853726   -0.177886
H       0.295888    1.935194    0.976723
H       0.741879   -0.485573    0.302525
H      -2.910630   -2.274509   -0.272675
H      -3.380170   -4.501787   -0.224227
