22

C       0.098185    1.367404    0.230214
C      -0.019955   -0.132555    0.016063
O       0.715527   -0.476436   -1.144944
C       0.825484   -1.872547   -1.410866
C      -0.464537   -2.462797   -1.981025
C       1.988709   -2.014168   -2.393361
N       3.199636   -1.419243   -1.863966
C       4.376555   -2.086005   -1.756168
O       4.579043   -3.223176   -2.130033
H       1.143562    1.657697    0.371071
H      -0.294199    1.910077   -0.634447
H      -0.467473    1.671173    1.116012
H       0.374197   -0.681804    0.887039
H      -1.077686   -0.415399   -0.093294
H       1.091501   -2.393774   -0.476463
H      -1.293527   -2.377753   -1.273604
H      -0.745781   -1.944507   -2.903165
H      -0.329397   -3.525373   -2.206380
H       2.204497   -3.065692   -2.591613
H       1.711268   -1.535533   -3.342031
H       3.113525   -0.493396   -1.475317
H       5.158103   -1.459938   -1.280727
