13

C      -0.026346    1.476824   -0.028772
C       0.004164   -0.016825    0.047132
N      -0.119133   -0.747787   -1.054668
N      -0.047792   -2.035689   -0.617440
C       0.115709   -2.116964    0.719602
O       0.202213   -3.339438    1.288581
C       0.156269   -0.827420    1.204880
H       0.902171    1.916733    0.351951
H      -0.156840    1.790510   -1.066684
H      -0.848774    1.891778    0.564555
H      -0.115830   -2.798427   -1.268506
H       0.315558   -3.229104    2.237521
H       0.276264   -0.515894    2.230000
