16

O      -0.016024    0.005687    0.005150
C       0.013217    1.188187    0.139076
O       1.123651    1.921238   -0.134203
C       1.012547    3.319553   -0.009383
C       2.394167    3.923012    0.146674
C       2.283948    5.448876    0.041064
N       1.474451    5.886482   -1.091774
C       0.658507    5.064051   -1.588572
O       0.371226    3.787683   -1.193333
H      -0.828797    1.805282    0.504091
H       0.361713    3.567336    0.841969
H       2.827763    3.607576    1.099451
H       3.024386    3.529528   -0.657228
H       1.856414    5.876179    0.958168
H       3.280447    5.888981   -0.061359
H       0.049445    5.318720   -2.452610
