19

C       0.020994    1.619235   -0.036978
C       0.101149    0.100060   -0.008934
C       0.672729   -0.696989   -1.182000
C       1.318059   -1.672078   -0.274492
N       2.186969   -0.859523   -1.139346
C       2.830650    0.039257   -0.227964
N       2.359037    0.129207    0.949073
C       1.127053   -0.682892    0.925121
C       0.676949   -1.155100    2.285221
H       0.989425    2.078947   -0.244677
H      -0.681010    1.942503   -0.813897
H      -0.337703    2.012630    0.919898
H      -0.887893   -0.324533    0.199099
H       0.233576   -0.829796   -2.163501
H       1.382886   -2.754676   -0.292726
H       3.692629    0.596021   -0.582503
H       0.473611   -0.303612    2.941381
H      -0.232785   -1.759333    2.210552
H       1.456118   -1.761692    2.758314
