16

O       0.299489    0.586319    0.782278
C      -0.168905    0.182167   -0.486949
C      -1.528728   -0.482475   -0.419079
C      -1.909407   -1.556763   -1.377823
C      -1.611181   -1.943469    0.080814
C      -0.391934   -2.639696    0.396760
C       0.637943   -3.194267    0.675493
C      -2.748134   -2.279758    0.905583
N      -3.668510   -2.536024    1.556972
H       0.496586   -0.214098    1.282343
H      -0.250684    1.092375   -1.090648
H       0.544461   -0.484224   -0.992453
H      -2.325752    0.148651   -0.039219
H      -2.941123   -1.642165   -1.696669
H      -1.172354   -1.885068   -2.102010
H       1.536781   -3.708317    0.913944
