13

O      -0.192061    0.251776    0.514728
C      -0.036846    1.327608    0.009614
C       1.362709    1.968158   -0.119098
C       1.433248    2.855288   -1.275918
N       1.469618    3.544116   -2.202606
C       1.673468    2.683283    1.202217
C       2.428201    3.937559    1.281018
O       1.003045    3.911032    1.434874
H      -0.877376    1.948406   -0.357852
H       2.078564    1.147004   -0.238679
H       1.688543    1.993360    2.045701
H       2.989382    4.160945    2.186090
H       2.785095    4.409212    0.368491
