16

C       0.104997    1.470231   -0.018689
C       0.064868   -0.032491   -0.013975
O       1.060254   -0.724750   -0.041879
C      -1.297307   -0.758574    0.005732
O      -1.109596   -2.110650   -0.274495
C      -1.979237   -0.622476    1.406485
O      -2.324943    0.706199    1.750186
C      -3.159916   -1.501690    1.465682
N      -4.133798   -2.121260    1.512142
H       1.138965    1.815103    0.009519
H      -0.382696    1.845537   -0.926251
H      -0.463601    1.861147    0.829600
H      -1.965038   -0.299319   -0.739233
H      -0.146068   -2.244929   -0.236176
H      -1.262103   -0.960432    2.162610
H      -3.122407    0.951224    1.266367
