16

O      -0.080671   -0.000062    0.210746
C      -0.034485    1.196875    0.095522
N      -1.118415    2.071471   -0.000096
C      -0.638602    3.370493   -0.070422
N       0.632843    3.501587   -0.073743
C       1.180711    2.140777    0.005090
C       2.152346    1.948492    1.159948
C       3.152845    2.990881    1.476754
N       2.019772    2.737584    2.390535
H      -2.083059    1.787449    0.060969
H      -1.336932    4.200071   -0.120035
H       1.704697    1.911704   -0.933666
H       2.396811    0.901507    1.322998
H       4.127547    2.706092    1.862065
H       3.132378    3.899136    0.881890
H       1.325652    3.467295    2.237273
