14

C      -0.031563    1.533736    0.013927
C      -0.008169    0.034611   -0.015662
N      -0.040465   -0.578865   -1.165531
N      -0.018411   -1.915857   -1.158658
C       0.036169   -2.793609   -0.063335
O       0.049704   -3.998400   -0.232344
C       0.071212   -2.081611    1.202745
C       0.048999   -0.731584    1.197430
F       0.079560   -0.039664    2.334548
H       0.860937    1.932932    0.507349
H      -0.075359    1.914789   -1.006932
H      -0.897927    1.904212    0.572086
H      -0.044956   -2.348675   -2.072529
H       0.114315   -2.654966    2.119127
