22

C      -0.231096    1.481538    0.024085
C       0.076677   -0.022581   -0.017421
C       0.796853   -0.401997   -1.319808
C       0.830678   -0.506023    1.236886
C       2.215361    0.116280    1.423827
C      -0.006639   -0.506847    2.545204
O       0.188043   -1.922096    2.730037
C       0.832779   -2.044957    1.447768
H       0.681139    2.082664   -0.051811
H      -0.879200    1.765434   -0.811322
H      -0.742538    1.764438    0.950391
H      -0.887049   -0.551941   -0.012652
H       1.738759    0.144761   -1.434496
H       1.024149   -1.472709   -1.359297
H       0.173842   -0.164082   -2.188023
H       2.160258    1.205030    1.523738
H       2.686481   -0.274309    2.331561
H       2.879146   -0.112201    0.583837
H       0.395180    0.076854    3.382796
H      -1.068516   -0.255072    2.413361
H       0.216231   -2.609179    0.733711
H       1.815725   -2.526084    1.525604
