16

O      -0.046256    1.490090   -0.099894
C       0.002859    0.082617   -0.013530
C       0.209134   -0.444243    1.441747
C      -1.341072   -0.519393    1.605268
C      -1.453698   -0.448533    0.050904
C      -1.873667   -1.767735    2.254809
O      -2.630373   -1.794299    3.189122
C       0.887387   -0.480465   -1.042547
N       1.603869   -0.922909   -1.834539
H       0.847548    1.837650    0.003660
H       0.674634   -1.433978    1.455525
H       0.751586    0.224105    2.112570
H      -1.757800    0.357743    2.099912
H      -2.198830    0.226280   -0.370253
H      -1.547122   -1.437944   -0.403771
H      -1.498420   -2.711480    1.788412
