17

O       0.101397    1.516498    0.057377
C      -0.005008    0.117601    0.009572
C       0.315464   -0.684940    1.300259
C      -0.792753   -0.359469    2.309760
C      -1.633702    0.884137    2.186715
C      -2.032053   -0.324863    1.377804
C      -1.379845   -0.639848    0.027606
C      -0.475200   -1.809992    0.545511
O      -0.416815   -2.992715    0.425302
H      -0.160677    1.864121   -0.801184
H       0.603520   -0.278829   -0.815728
H       1.334479   -0.814651    1.656018
H      -0.801818   -0.927306    3.232085
H      -2.275324    1.063452    3.044543
H      -1.242829    1.769800    1.711866
H      -2.936274   -0.865193    1.630458
H      -2.005515   -0.727869   -0.858098
