18

C       0.087114    1.538878    0.009162
C       0.002448    0.010254    0.002042
C      -1.440158   -0.505728    0.012920
C      -1.523236   -2.031355    0.005789
C      -2.944310   -2.566202    0.016469
O      -3.926808   -1.856878    0.029876
C      -3.059581   -4.018262    0.009603
C      -3.134415   -5.219717    0.003778
H       1.126636    1.880908    0.001176
H      -0.411862    1.966432   -0.867414
H      -0.395280    1.957283    0.899330
H       0.523699   -0.381770   -0.881678
H       0.540165   -0.390851    0.871709
H      -1.968793   -0.121542    0.893028
H      -1.985187   -0.112480   -0.853078
H      -1.016323   -2.457289   -0.871981
H      -0.999944   -2.466274    0.869439
H      -3.220386   -6.279262   -0.001072
