14

C      -0.036577    1.375251   -0.021630
O       0.031773   -0.056461    0.047691
C       0.654314   -0.576429    1.090846
N       1.175309    0.178961    2.002681
C       1.807874   -0.414855    3.059843
N       2.356032    0.198207    4.013567
O       1.834684   -1.857224    3.057768
C       1.253623   -2.494526    2.047471
N       0.655887   -1.964367    1.047409
H       0.966970    1.805299   -0.052658
H      -0.580481    1.591005   -0.940753
H      -0.564492    1.775722    0.846667
H       2.760675   -0.455718    4.680866
H       1.332293   -3.574759    2.145612
