20

N       0.083918    1.599167    0.015963
C       0.036599    0.134717    0.037557
C       0.663757   -0.547530   -1.206415
N      -0.010276   -0.088853   -2.399674
C      -1.295801   -0.712034   -2.795243
C      -0.856213   -0.599542   -4.274319
C       0.576141   -0.408046   -3.720023
C       0.669755   -0.375632    1.259400
N       1.197373   -0.795299    2.197595
H       1.044650    1.905571    0.148816
H      -0.174968    1.876510   -0.929363
H      -1.021377   -0.160235    0.079275
H       1.719585   -0.258491   -1.268552
H       0.626680   -1.646934   -1.089470
H      -1.379773   -1.759890   -2.463592
H      -2.192825   -0.169982   -2.479935
H      -1.031274   -1.465589   -4.912032
H      -1.243167    0.296688   -4.761718
H       1.200046    0.383267   -4.147791
H       1.147512   -1.349532   -3.719445
