23

C      -0.123073    1.542086    0.124879
C      -0.065832    0.031504    0.139085
C       1.180065   -0.701179   -0.290662
C       0.761756   -0.722211    1.158858
C       1.554161    0.007143    2.256068
C       1.543394   -0.953462    3.468283
C       0.246429   -1.753334    3.288064
C       0.216997   -2.019849    1.774657
O      -1.063133   -2.335869    1.249084
H       0.848840    1.989239    0.356965
H      -0.424581    1.908386   -0.862769
H      -0.847088    1.925690    0.853493
H      -0.997870   -0.457583   -0.123385
H       1.064974   -1.615039   -0.866526
H       2.053862   -0.111265   -0.554770
H       2.571012    0.264085    1.944421
H       1.059947    0.947318    2.526716
H       2.405272   -1.630151    3.423685
H       1.597547   -0.428056    4.425444
H       0.207370   -2.668821    3.887378
H      -0.626651   -1.141594    3.546106
H       0.919064   -2.840063    1.546118
H      -1.294639   -3.220327    1.547387
