16

C      -0.025150    1.510605    0.035078
C       0.034169    0.006170    0.028240
C       0.530815   -0.969633   -1.066184
N       0.066121   -1.949702    0.027441
C       0.756354   -0.966499    0.995084
C      -1.152930   -1.004716    0.134383
C      -1.936929   -1.078931    1.358763
N      -2.578961   -1.105582    2.320029
H       0.979396    1.937567   -0.051428
H      -0.624890    1.884982   -0.801096
H      -0.471165    1.878329    0.964790
H      -0.039874   -1.045482   -1.996207
H       1.605858   -1.019391   -1.251905
H       1.846633   -1.013548    0.944699
H       0.401490   -1.040111    2.025136
H      -1.816883   -1.079209   -0.731594
