20

C      -0.140730    1.544246   -0.131539
C       0.010097    0.036846    0.020392
C       1.163543   -0.612717   -0.781015
O       1.545594   -0.575296   -1.919364
N       1.649907   -1.243385    0.347007
C       0.709063   -0.579465    1.288814
C       1.388294    0.385903    2.254930
C      -0.145933   -1.609934    2.033769
O       0.630581   -2.440951    2.881554
H       0.799252    2.072966    0.047096
H      -0.459034    1.776348   -1.152028
H      -0.893163    1.941624    0.556812
H      -0.944861   -0.457800   -0.188175
H       2.590355   -1.577405    0.512022
H       2.095471    1.041294    1.740670
H       0.647581    1.009858    2.765352
H       1.927603   -0.181425    3.018878
H      -0.866136   -1.097730    2.681532
H      -0.711412   -2.207598    1.304274
H       1.143115   -3.023930    2.311284
