23

C       0.000776    1.603652    0.007323
C      -0.009426    0.063854    0.009099
C      -1.356502   -0.498980    0.006343
C      -2.477710   -0.944383   -0.003111
C      -3.828477   -1.445090    0.021088
C      -4.804259   -0.595041    0.823830
C      -4.356540   -2.142046   -1.228926
C      -4.052979   -2.956647   -0.001779
C      -2.904476   -3.937712    0.018516
H       1.028450    1.979563    0.009727
H      -0.508026    1.994256   -0.878181
H      -0.511665    1.996175    0.889954
H       0.541312   -0.304312   -0.866462
H       0.542197   -0.302508    0.885027
H      -4.865615    0.419243    0.416344
H      -5.807612   -1.031903    0.800876
H      -4.488860   -0.519001    1.869385
H      -5.391563   -1.960114   -1.499392
H      -3.678789   -2.228190   -2.071207
H      -4.920669   -3.271449    0.573491
H      -2.043956   -3.546991   -0.530905
H      -2.576488   -4.143776    1.043221
H      -3.198199   -4.889398   -0.438152
