23

C      -0.103109    1.685212    0.163634
C      -0.031751    0.171622   -0.108596
C      -1.364048   -0.516993   -0.007787
C      -2.030058   -1.102324   -1.006514
C      -3.345298   -1.700277   -0.572102
C      -3.536728   -1.112231    0.849232
C      -2.126190   -0.655758    1.304723
C      -1.456438   -1.666651    2.241912
O      -2.194183   -1.691780    3.456886
H       0.886297    2.143758    0.070358
H      -0.774639    2.176763   -0.547274
H      -0.473324    1.895613    1.171828
H       0.384126    0.002845   -1.108409
H       0.678481   -0.277533    0.599386
H      -1.665239   -1.169064   -2.027246
H      -4.171762   -1.441361   -1.244172
H      -3.295595   -2.798669   -0.565834
H      -4.199213   -0.243043    0.796656
H      -3.982027   -1.813784    1.558170
H      -2.177729    0.290704    1.856563
H      -1.443006   -2.658357    1.761333
H      -0.409897   -1.376572    2.425837
H      -1.814039   -2.367580    4.025432
