21

C       0.002610    1.431102   -0.004824
C       1.480477    1.921178    0.013275
C       2.201460    0.665655    0.490868
O       3.551178    0.532821    0.113359
C       4.053986   -0.710154    0.603164
C       3.241937   -1.927668    0.127306
C       1.731238   -1.783067    0.424353
C       1.328574   -0.427997   -0.123041
O       0.014419    0.001231    0.172254
H      -0.590603    1.857745    0.809730
H      -0.489652    1.685655   -0.952435
H       1.828929    2.180557   -0.990936
H       1.627989    2.787935    0.660336
H       2.113345    0.584752    1.589343
H       5.088205   -0.776475    0.254758
H       4.069656   -0.686787    1.706341
H       3.387140   -2.046913   -0.953125
H       3.644427   -2.827437    0.605338
H       1.163701   -2.600580   -0.031182
H       1.542586   -1.811825    1.504793
H       1.500875   -0.421899   -1.215640
