22

C       0.083978    1.578357    0.000335
C       0.017726    0.048812    0.070661
C       0.582184   -0.588856   -1.228972
C       1.219300   -1.986057   -1.005419
N       1.737389   -2.186076    0.363803
C       2.239158   -0.871355    0.900342
C       0.771952   -0.524308    1.286979
O       0.473790    0.249529    2.418647
C       0.580988   -2.057662    1.312942
H       1.122603    1.923989   -0.061568
H      -0.440023    1.941292   -0.890177
H      -0.369167    2.035140    0.881754
H      -1.034516   -0.240316    0.194210
H      -0.195580   -0.638182   -1.997892
H       1.348078    0.086396   -1.626921
H       0.496200   -2.787276   -1.192426
H       2.042259   -2.134228   -1.713549
H       2.869352   -1.050189    1.779425
H       2.784300   -0.239248    0.194351
H       0.911844   -0.149755    3.177718
H      -0.367414   -2.478684    0.963563
H       0.840836   -2.502906    2.281890
