17

N      -0.040124    1.292679    0.491071
C      -0.030741    0.101391    0.044665
C      -1.361415   -0.590438   -0.173937
C      -1.521825   -1.653156   -1.220912
C      -0.658684   -2.044228   -2.153466
C       0.728349   -1.494965   -2.379716
C       1.617187   -1.418583   -1.146724
O       2.721467   -1.913803   -1.101436
N       1.146334   -0.672836   -0.072850
H       0.908017    1.630706    0.671299
H      -1.609294   -1.044814    0.798399
H      -2.109101    0.197343   -0.314842
H      -2.490488   -2.146982   -1.186366
H      -0.960365   -2.837139   -2.831492
H       1.272739   -2.110639   -3.096054
H       0.673413   -0.482901   -2.806613
H       1.887208   -0.451808    0.581096
