19

C      -0.003470    1.627639    0.005502
C       0.026498    0.095472    0.028759
C       0.769838   -0.532300   -1.177691
C       1.504661   -1.792565   -0.633808
N       2.845383   -1.919165   -1.223650
C       1.566959   -1.504334    0.859150
C       0.770552   -0.497898    1.203569
C       0.696908   -3.017809   -0.864974
N       0.101930   -3.990952   -1.060739
H       1.011725    2.038778    0.003239
H      -0.519869    1.995453   -0.887041
H      -0.527687    2.025671    0.880442
H      -1.012868   -0.263550    0.052728
H       0.113852   -0.756534   -2.021565
H       1.553864    0.150129   -1.520147
H       3.310243   -2.741091   -0.845253
H       2.761783   -2.083978   -2.224313
H       2.171960   -2.109597    1.524033
H       0.633506   -0.135641    2.217234
