14

O      -0.047908    1.267899   -0.492857
C       0.002283   -0.006619    0.140711
C      -1.385069   -0.590301    0.123791
C      -1.901674   -1.251701   -1.139571
C      -1.586950   -2.077718    0.080454
O      -0.439640   -2.881463    0.101201
H       0.828622    1.659330   -0.433183
H       0.692772   -0.688242   -0.373478
H       0.349560    0.086195    1.182166
H      -2.109250   -0.027564    0.705577
H      -2.936852   -1.105954   -1.427692
H      -1.202177   -1.318330   -1.966555
H      -2.425552   -2.478632    0.649892
H      -0.585216   -3.616749   -0.502769
