18

C       0.089306    1.410502    0.164160
O       0.044515    0.010775   -0.060395
C      -1.227418   -0.556259   -0.004924
C      -1.121978   -1.936989   -0.690113
C      -0.793391   -1.816314   -2.108191
N      -0.557547   -1.722525   -3.234996
C      -1.759824   -0.706120    1.440723
C      -3.164268   -1.264056    1.602002
O      -1.084014   -0.379083    2.384047
H       1.124138    1.717086    0.000992
H      -0.555327    1.944884   -0.549504
H      -0.205876    1.665799    1.187006
H      -1.962507    0.054845   -0.559414
H      -0.336961   -2.511590   -0.186853
H      -2.059188   -2.492971   -0.594252
H      -3.830476   -0.951635    0.792155
H      -3.127608   -2.360108    1.594684
H      -3.568201   -0.947841    2.564839
