19

O       0.123241    1.277005   -0.356125
C       0.034923   -0.088247   -0.012162
C       0.142159   -0.401918    1.542818
C      -1.410757   -0.410460    1.604013
C      -2.311160    0.841544    1.552209
C      -2.863680   -0.074996    0.446276
C      -2.593213   -1.398699    1.301698
C      -1.830779   -2.077191    0.152348
C      -1.436559   -0.590150    0.050211
H       1.025948    1.567642   -0.187688
H       0.686731   -0.702100   -0.651574
H       0.608865   -1.371060    1.738900
H       0.639005    0.359732    2.151454
H      -2.958350    1.019765    2.417908
H      -1.840728    1.767144    1.215039
H      -3.727520    0.081007   -0.209480
H      -3.302616   -1.842815    2.008995
H      -1.046311   -2.783845    0.444558
H      -2.422716   -2.491016   -0.670549
