16

C       0.040516   -1.227659   -0.057546
C       0.018546   -0.026701   -0.042605
C       0.017495    1.428981    0.019823
C      -0.224127    2.093303    1.449369
C       1.143975    2.769630    1.353292
C       2.219874    1.737275    1.177879
C       1.401834    2.140816   -0.012581
C      -0.894639    1.990384   -0.979000
N      -1.602929    2.458702   -1.762870
H       0.051696   -2.289553   -0.085503
H      -1.067093    2.783513    1.420351
H      -0.362855    1.376093    2.261737
H       1.355431    3.779462    1.679091
H       3.236209    2.116684    1.171692
H       2.113081    0.744146    1.605918
H       1.825764    2.562532   -0.914127
