20

C       0.332994    1.639308    0.082670
C       0.105673    0.147084   -0.017299
C       0.540335   -0.663793   -1.230926
C       1.359366   -0.040845   -2.349646
N       2.745605    0.282729   -2.039057
C       3.209956    0.097681   -0.876555
C       4.634442    0.416842   -0.528859
O       2.557745   -0.377760    0.228137
C       1.236950   -0.842208    0.085998
H       1.254782    1.951483   -0.413312
H      -0.493880    2.187587   -0.380904
H       0.396070    1.954085    1.129609
H      -0.818159   -0.193120    0.444550
H      -0.122837   -1.464833   -1.541745
H       1.375004   -0.735238   -3.198437
H       0.882366    0.873179   -2.728898
H       5.137862    0.832985   -1.400376
H       4.671300    1.132813    0.298467
H       5.155992   -0.486691   -0.196741
H       1.105232   -1.750407    0.663627
