14

O      -0.043711    1.337030    0.228597
C      -0.002601   -0.064729    0.231391
C      -0.672193   -0.746800    1.389993
C      -1.341916   -0.740241    0.031173
O      -2.444815    0.074041   -0.179795
C      -1.420518   -2.008060   -0.775391
F      -2.492317   -2.741091   -0.456827
F      -1.482829   -1.752458   -2.088785
F      -0.327395   -2.766838   -0.560951
H       0.223128    1.639847   -0.646824
H       0.894111   -0.514706   -0.185206
H      -0.225893   -1.661489    1.760739
H      -1.140657   -0.111714    2.133438
H      -2.108074    0.982250   -0.174993
