14

O       0.095860    1.362930    0.046633
C       0.067521    0.010421    0.060958
N       0.056869   -0.708831   -1.050296
N       0.037165   -2.022022   -0.649721
C       0.021562   -2.127028    0.707181
C       0.046617   -0.821473    1.197383
N       0.040864   -0.887396    2.573758
C       0.012005   -2.217709    2.931632
C      -0.000538   -3.025262    1.811332
H       0.103877    1.629303   -0.881419
H      -0.012432   -2.736638   -1.350945
H       0.057560   -0.112311    3.210655
H       0.001663   -2.499021    3.973433
H      -0.023614   -4.102799    1.810668
