22

C      -0.085894    0.676696   -2.175147
N       0.084566   -0.328697   -1.132106
C       1.304777   -0.329977   -0.316588
C       2.427570    0.660076   -0.523749
O       3.159757    0.416280   -1.720442
C      -0.015875    0.062062    0.257430
C      -0.393153    1.427360    0.867991
C      -0.905260    0.659205    2.122203
C      -0.837367   -0.674462    1.321724
H       0.123964    1.709190   -1.860305
H       0.576870    0.439120   -3.010902
H      -1.121380    0.639813   -2.528585
H       1.662412   -1.340721   -0.100341
H       2.050056    1.680888   -0.616234
H       3.089404    0.638865    0.357587
H       3.457068   -0.499423   -1.699672
H       0.399637    2.162641    1.025711
H      -1.205021    1.912289    0.315854
H      -0.185773    0.688252    2.943923
H      -1.883744    0.951980    2.507302
H      -1.811037   -0.986801    0.932290
H      -0.365763   -1.530435    1.811245
