14

C      -0.014877    1.453430    0.010080
C       0.005220    0.001733    0.002436
C       0.019972   -1.203567   -0.004053
C       0.038368   -2.629354   -0.011613
N       1.237035   -3.239307   -0.021601
C       1.180276   -4.567184   -0.028315
N       0.073341   -5.313277   -0.026064
C      -1.052632   -4.596346   -0.015974
N      -1.143987   -3.270375   -0.008430
H       0.999104    1.865872    0.002603
H      -0.546126    1.839493   -0.866727
H      -0.529269    1.830357    0.900811
H       2.130865   -5.096611   -0.036455
H      -1.989106   -5.150413   -0.013651
