17

C      -0.003991    1.514863   -0.270701
C      -0.022854    0.023275    0.100517
C      -1.416659   -0.556523    0.060259
N      -2.269093   -0.121222    1.000957
C      -3.513705   -0.598018    0.987645
C      -3.991240   -1.521121    0.061220
C      -3.093585   -1.956186   -0.900123
F      -3.481719   -2.840041   -1.818053
C      -1.791586   -1.481264   -0.916970
H       1.007234    1.923440   -0.184859
H      -0.347140    1.670018   -1.298811
H      -0.663554    2.076558    0.395727
H       0.632558   -0.541765   -0.570404
H       0.367568   -0.097716    1.117064
H      -4.177222   -0.226488    1.765151
H      -5.009524   -1.887906    0.083279
H      -1.095070   -1.827379   -1.671121
