25

C      -0.454940    1.478602    0.193810
C       0.214826    0.124141   -0.076318
C       0.876123   -0.495735    1.148715
C       2.030850    0.309765    1.720986
C       0.005688   -1.249371    2.132055
C       0.994988   -2.003469    1.267510
C       0.535675   -2.989284    0.213591
C       0.337684   -4.388305    0.789126
O      -0.092923   -5.237183   -0.265080
H       0.269347    2.240643    0.497390
H      -0.961056    1.847000   -0.704031
H      -1.202177    1.394268    0.990210
H      -0.538696   -0.561290   -0.476469
H       0.966948    0.243025   -0.868605
H       1.706803    1.297010    2.067518
H       2.484301   -0.203138    2.574966
H       2.815436    0.462648    0.969676
H       0.202487   -1.147645    3.194632
H      -1.047399   -1.358742    1.887773
H       1.896792   -2.328724    1.784554
H      -0.410797   -2.677081   -0.238361
H       1.266931   -3.052792   -0.602184
H       1.283551   -4.746781    1.227964
H      -0.404163   -4.350357    1.602782
H      -0.227418   -6.118519    0.094819
