13

O      -0.010583    1.330409    0.010007
C       0.030570   -0.021361    0.002444
N       1.174760   -0.617967   -0.007661
N       1.145147   -1.979919   -0.014813
C       0.026550   -2.809592   -0.012698
N       0.033686   -4.096010   -0.019812
C      -1.224072   -2.060558   -0.001088
C      -1.231796   -0.714159    0.006283
H       0.904801    1.642061    0.006207
H       2.062008   -2.398409   -0.022694
H       0.985150   -4.468163   -0.027581
H      -2.131114   -2.651978    0.001139
H      -2.146269   -0.133271    0.014942
