16

C       0.158811    1.475213   -0.024863
C      -0.018797   -0.010215    0.008554
C      -0.243815   -0.834352   -1.046231
O      -0.360693   -2.139515   -0.629215
C      -0.190407   -2.117996    0.713168
O      -0.325122   -3.284273    1.376870
C       0.251785   -4.405113    0.842778
N       0.039035   -5.511916    1.398471
C       0.020684   -0.861344    1.172885
H       1.135398    1.770323    0.374977
H       0.085507    1.858283   -1.046286
H      -0.602478    1.981734    0.578797
H      -0.342203   -0.676341   -2.106881
H       0.858043   -4.194963   -0.042175
H       0.541116   -6.249526    0.908285
H       0.185388   -0.576583    2.199090
