17

C      -0.152627    1.663182   -0.048584
C      -0.021728    0.156528   -0.004962
O      -1.288555   -0.384235   -0.179227
C       1.142071   -0.621316   -0.708966
C       2.155091   -0.134480    0.342770
C       0.873205   -0.576964    1.090452
O       0.832820   -1.776188    0.182641
C       0.632946   -0.746969    2.487168
C       0.408973   -0.845572    3.664637
H       0.798935    2.182341    0.065309
H      -0.599856    1.958123   -1.002358
H      -0.826626    1.988951    0.748763
H      -1.159507   -1.343789   -0.128853
H       1.289575   -0.845807   -1.764815
H       2.996161   -0.810353    0.491802
H       2.444882    0.915400    0.371806
H       0.212973   -0.939516    4.704450
