22

C      -0.890564    0.973786   -0.415417
C      -0.324512   -0.415967   -0.113288
C       0.736855   -0.397956    0.993349
O       0.103639    0.076871    2.175187
C       1.002671    0.481936    3.186308
C       1.345640   -1.770904    1.217989
C       0.488111   -2.877996    1.764271
N       2.582337   -1.880081    0.913605
O       3.058095   -3.187593    1.103468
H      -0.103566    1.653928   -0.760050
H      -1.653516    0.923011   -1.198003
H      -1.342661    1.407730    0.479340
H      -1.134647   -1.091240    0.186200
H       0.133908   -0.845600   -1.011329
H       1.552951    0.280862    0.702720
H       1.644174   -0.342337    3.528338
H       1.652770    1.300573    2.842444
H       0.400615    0.835432    4.026850
H       0.162073   -3.549271    0.961319
H       1.056409   -3.484251    2.473280
H      -0.394029   -2.463745    2.255200
H       3.988392   -3.098962    0.870895
