23

C      -0.660782    1.316800   -0.063522
C      -0.013660   -0.059515    0.035006
C       1.238160   -0.400411   -0.863546
C       1.827610    0.663089   -1.780126
C       2.041842   -0.752558    0.423049
C       2.883863   -2.001564    0.461905
O       2.748217    0.401193    0.957181
C       1.686845    0.673753    1.901102
C       0.799675   -0.429598    1.312656
H       0.062573    2.130858    0.037912
H      -1.158529    1.443397   -1.030892
H      -1.419449    1.446708    0.716676
H      -0.791612   -0.813352   -0.122592
H       1.043148   -1.309329   -1.443753
H       2.139430    1.544923   -1.216137
H       2.712312    0.277955   -2.298978
H       1.105654    0.971766   -2.543551
H       3.747062   -1.896142   -0.205673
H       3.260720   -2.189517    1.471881
H       2.306607   -2.872609    0.135000
H       2.015218    0.480751    2.931233
H       1.326719    1.707136    1.838522
H       0.344379   -1.133273    2.010085
