23

C       0.552907    0.987177    0.462817
O      -0.282075    0.198434   -0.359302
C       0.410086   -0.433048   -1.380659
C       1.138112   -1.735144   -1.093152
C      -0.151154   -1.717747   -1.900273
O      -1.335838   -2.165332   -1.338072
C      -1.713671   -3.496602   -1.694234
C      -0.827809   -4.552821   -1.029214
C      -3.178234   -3.635482   -1.295729
H       1.329084    0.382154    0.953521
H       1.049049    1.786317   -0.109640
H      -0.084112    1.441639    1.225159
H       0.861454    0.246049   -2.107603
H       2.083113   -1.948826   -1.581706
H       1.038921   -2.102899   -0.077933
H      -0.071732   -1.887980   -2.975894
H      -1.627262   -3.601601   -2.789381
H      -1.160003   -5.557047   -1.312040
H       0.217505   -4.445987   -1.329455
H      -0.884874   -4.464951    0.060719
H      -3.781351   -2.866803   -1.785497
H      -3.563945   -4.619511   -1.578219
H      -3.287650   -3.517272   -0.213082
