22

C       0.218480    1.955982   -0.059015
C       0.135284    0.437460   -0.026613
C      -1.279008   -0.044301    0.219911
C      -1.682778    0.174473    1.779836
O      -0.758894    0.655544    2.468276
O      -2.830918   -0.180336    2.033796
N       0.691403   -0.197292   -1.363499
H      -0.092242   -0.130885   -2.015551
C       1.861751    0.505248   -1.966977
C       1.002988   -1.646279   -1.175334
H       1.238613    2.341671   -0.131593
H      -0.393121    2.385674   -0.861263
H      -0.190172    2.258879    0.908145
H       0.794189    0.051068    0.754358
H      -1.995986    0.498047   -0.408028
H      -1.413865   -1.113426    0.029660
H       2.191924   -0.042198   -2.852017
H       1.576840    1.518504   -2.240771
H       2.665397    0.534603   -1.229929
H       0.142758   -2.142016   -0.731701
H       1.242469   -2.095431   -2.140771
H       1.859446   -1.723572   -0.504484
