17

C      -0.075924    1.630662    0.035245
C       1.417136    1.243911   -0.075164
O       1.230202    0.291671    1.042596
C       0.047186    0.095612    0.174765
C       1.033733    0.071931   -1.043725
O       0.533306    0.390395   -2.323088
C       1.090085   -0.486680   -3.303568
C       1.997342   -1.400885   -2.530480
C       1.961327   -1.077722   -1.241835
H      -0.341572    2.148325    0.957566
H      -0.569855    2.026749   -0.852350
H       2.308755    1.872038   -0.058367
H      -0.691568   -0.642836    0.489006
H       0.280873   -1.025723   -3.819286
H       1.625595    0.101602   -4.064176
H       2.575637   -2.190985   -2.991725
H       2.495172   -1.536575   -0.423459
