19

C      -0.110004    1.541203   -0.017639
C      -0.067805    0.012374    0.029342
C       0.741535   -0.538491    1.239085
C      -0.011914   -0.216445    2.533255
O       0.318093    0.630887    3.317868
C       0.933328   -1.981034    1.146456
C       1.039517   -3.180663    1.089274
C       1.231106   -4.631051    1.053047
O       1.375904   -5.216011    2.338720
H       0.896763    1.959795   -0.118423
H      -0.701843    1.881683   -0.872136
H      -0.552462    1.964968    0.888856
H      -1.082550   -0.401781    0.070686
H       0.387637   -0.384925   -0.883107
H       1.705915   -0.019490    1.291510
H      -0.927269   -0.832466    2.679870
H       0.357086   -5.115168    0.603472
H       2.090502   -4.864980    0.404235
H       2.077185   -4.740213    2.796114
