16

F      -0.210578    0.074010   -0.156272
C      -0.112256    1.401084    0.002064
F       1.193171    1.723978   -0.084855
F      -0.719600    1.978252   -1.053177
C      -0.698833    1.870596    1.289072
C      -1.264154    1.093442    2.209940
C      -1.710427    1.886866    3.412035
C      -1.596851    3.358550    2.930987
C      -0.654290    3.325601    1.699134
H      -1.364917    0.017765    2.132519
H      -2.723066    1.625924    3.737996
H      -1.051526    1.678409    4.266652
H      -2.583900    3.715105    2.621915
H      -1.240233    4.032026    3.713334
H       0.373348    3.617008    1.952571
H      -0.979374    3.997269    0.898310
