18

O      -0.039227   -0.099295    0.304415
C      -0.006636    1.078768    0.041169
N      -1.141526    1.855843    0.121306
C      -1.419952    3.250935   -0.212221
C      -0.871629    3.657907   -1.564186
C      -0.036872    4.907236   -1.689270
C       0.624559    3.551599   -1.730020
C       1.387310    3.030976   -0.542008
O       1.179250    1.625082   -0.341149
H      -1.913607    1.299292    0.449779
H      -2.508422    3.358012   -0.201957
H      -1.046262    3.926602    0.568063
H      -1.478853    3.370038   -2.416149
H      -0.090299    5.471849   -2.612666
H       0.098819    5.519174   -0.802629
H       0.990622    3.205114   -2.691094
H       2.466219    3.117835   -0.692644
H       1.142005    3.583317    0.371470
