17

C      -0.193351    1.514919   -0.009089
C       0.020112    0.020674    0.053881
C       1.322305   -0.623664   -0.249879
O       2.461523    0.087861   -0.549779
C       0.788083   -0.668948    1.215458
C       1.534206    0.114642    2.206494
O       2.190388    1.118012    1.929613
C       1.495191   -0.379858    3.568991
C       1.451686   -0.792537    4.698904
H       0.680868    2.071463    0.329090
H      -0.407880    1.810719   -1.041332
H      -1.043869    1.812813    0.611771
H      -0.850497   -0.565656   -0.230240
H       1.312988   -1.580464   -0.763901
H       2.601215    0.737736    0.163669
H       0.374650   -1.601374    1.580055
H       1.424813   -1.145241    5.701361
