18

C       0.011962    1.571628    0.054210
C      -0.027598    0.037613    0.004090
C      -1.452712   -0.508917   -0.004968
O      -2.060550   -0.104104   -1.229420
N       0.665267   -0.502882   -1.160226
C       2.037586   -0.548285   -1.195653
N       2.561306   -0.881403   -2.442804
O       2.744336   -0.305954   -0.232623
H       1.049704    1.911504    0.049735
H      -0.512485    2.001026   -0.803840
H      -0.467138    1.940092    0.967737
H       0.486764   -0.356928    0.885023
H      -1.424020   -1.605193    0.073677
H      -2.002158   -0.113013    0.861778
H      -2.934261   -0.500548   -1.283388
H       0.155545   -0.425960   -2.027625
H       2.010116   -1.492137   -3.027641
H       3.534301   -1.142541   -2.386986
