18

C      -0.050245    1.430743    0.010451
N       0.093409   -0.014322   -0.036705
C      -0.025422   -0.747260    1.211384
C       0.021070   -0.644484   -1.227015
N      -0.016029   -0.099467   -2.420581
C      -0.037652   -1.206497   -3.231969
C      -0.075348   -1.117055   -4.719213
N      -0.024998   -2.360360   -2.618226
O       0.009718   -1.985141   -1.241358
H       0.665264    1.846633    0.727704
H       0.147462    1.839864   -0.979171
H      -1.062600    1.724315    0.321085
H      -1.053285   -0.726120    1.600419
H       0.271345   -1.784738    1.064178
H       0.633369   -0.293876    1.958918
H       0.799860   -0.573559   -5.087797
H      -0.091011   -2.115220   -5.159133
H      -0.963434   -0.565676   -5.042499
