22

C      -2.611307   -1.929820   -0.624146
C      -1.128202   -1.600357   -0.843471
C      -0.308351   -1.975224    0.376496
C       0.424396   -3.237763    0.585075
C       1.121067   -3.725972   -0.687743
C       1.915175   -2.396688   -0.643145
C       2.036504   -1.421852   -1.802643
O       2.638999   -0.216096   -1.361188
N       1.163229   -1.894824    0.574958
H      -3.012546   -1.395531    0.243712
H      -3.208509   -1.646637   -1.495733
H      -2.755522   -3.001247   -0.450155
H      -0.776299   -2.118477   -1.738479
H      -1.015602   -0.526622   -1.039549
H      -0.769714   -1.601344    1.291344
H       0.337284   -3.822938    1.495610
H       1.748793   -4.606053   -0.542710
H       0.470104   -3.904768   -1.549027
H       2.930437   -2.587634   -0.281378
H       2.696533   -1.845821   -2.569278
H       1.067483   -1.228014   -2.280944
H       2.228657    0.002525   -0.515573
