17

N       0.368046    1.154495   -0.175051
C       0.166385   -0.062900    0.048464
O       1.016978   -1.053928    0.497399
C      -0.055827   -2.048395    0.441071
C      -1.035848   -0.968138   -0.062188
C      -2.374125   -0.680639    0.668885
C      -3.141985   -1.260926   -0.549793
C      -1.834945   -1.146216   -1.380460
H       1.335143    1.419164    0.019263
H       0.191332   -2.847243   -0.263811
H      -0.255319   -2.461564    1.433845
H      -2.515756   -1.162200    1.639882
H      -2.523298    0.395908    0.783455
H      -3.442739   -2.300340   -0.392784
H      -4.008774   -0.700564   -0.905149
H      -1.797086   -0.231170   -1.976773
H      -1.554590   -1.992158   -2.013371
