17

O       0.003570    1.490387   -0.060216
C      -0.127493    0.101587    0.085514
C      -0.584628   -0.678003    1.305423
C      -1.862830   -0.154073    2.029042
O      -2.283289   -0.753968    3.203506
C      -2.383818    1.170795    1.545495
C      -2.627711   -0.099950    0.739017
C      -1.393788   -0.646042   -0.030717
O      -1.538321   -1.579542   -1.037263
H       0.793369    1.758442    0.422783
H       0.664921   -0.457707   -0.419822
H       0.022707   -1.464739    1.737394
H      -1.874335   -0.286701    3.941218
H      -3.274754    1.488839    2.081887
H      -1.742785    1.959578    1.179824
H      -3.626878   -0.457926    0.525047
H      -2.113387   -2.283589   -0.715500
