14

C      -0.319572    1.251701   -0.096610
O       0.580178    0.158686    0.132737
C       0.869272   -0.577790   -0.947073
C       0.720020   -1.897218   -1.237009
N       0.194496   -2.932057   -0.466429
N       1.287253   -2.145639   -2.479425
C       1.739724   -0.997207   -2.867851
O       1.545150    0.014511   -1.999278
H       0.129026    1.990184   -0.768638
H      -1.262790    0.894070   -0.526297
H      -0.503574    1.707311    0.877502
H      -0.453872   -2.608737    0.238867
H      -0.225794   -3.649656   -1.042723
H       2.237744   -0.757774   -3.794007
