14

O      -0.049584    1.423785    0.035076
C      -0.000755    0.003468    0.012832
C      -1.444987   -0.537282   -0.068177
C      -1.501899   -1.368597   -1.358574
O      -2.457160   -1.982734   -1.760239
C      -0.166515   -1.264404   -2.004253
C       0.658458   -0.528225   -1.259360
C       0.727046   -0.491719    1.201196
N       1.332078   -0.854186    2.116931
H       0.849047    1.766434    0.111933
H      -1.731916   -1.145506    0.791220
H      -2.135731    0.306696   -0.132645
H       0.054787   -1.732672   -2.954661
H       1.691891   -0.286740   -1.482326
