19

C       0.197752    1.490795    0.006400
O       1.189223    0.472262   -0.135594
C      -0.177336    0.072184    0.024415
C      -0.516639   -0.656848    1.296889
C      -2.056142   -0.782754    1.564544
C      -2.138314   -2.323227    1.537515
C      -0.956403   -2.773106    2.423799
C      -0.222421   -2.177415    1.205341
O      -1.324956   -2.647324    0.364010
H       0.232727    2.048523    0.942118
H       0.011876    2.092026   -0.882664
H      -0.625232   -0.353961   -0.873908
H       0.022116   -0.193170    2.128546
H      -2.366413   -0.348457    2.518190
H      -2.655982   -0.337471    0.766834
H      -3.117284   -2.801660    1.547233
H      -0.819585   -2.318295    3.408638
H      -0.865058   -3.858684    2.463991
H       0.764590   -2.495075    0.871204
