20

N      -0.251928    1.325560    0.010609
C      -0.066208    0.075225    0.002767
O      -1.128425   -0.746496    0.006811
C      -0.990115   -2.158268   -0.000496
C       0.109804   -2.834863   -0.772556
C       0.121464   -2.841641    0.748533
C      -2.356732   -2.774462    0.007206
C      -3.496064   -2.152277    0.773525
C      -3.507456   -2.145766   -0.736445
H       0.645753    1.805375    0.005971
H       0.906562   -0.425922   -0.007411
H      -0.134668   -3.751824   -1.297930
H       0.844720   -2.220658   -1.281383
H       0.864137   -2.231948    1.251488
H      -0.114982   -3.763265    1.269403
H      -2.314386   -3.859656    0.002219
H      -4.176786   -2.814174    1.297215
H      -3.307064   -1.207101    1.267860
H      -3.325853   -1.196342   -1.225387
H      -4.196058   -2.803132   -1.255519
