18

C      -0.030110    1.509293    0.080428
C      -0.000021    0.008212   -0.005309
C       0.001310   -0.653259   -1.171803
C       0.022549   -2.126827   -1.279534
N       1.252579   -2.842269   -0.846051
C       0.042312   -2.938869   -0.022874
C       0.041007   -2.209007    1.290834
O       1.194606   -1.464185    1.645835
C       0.005720   -0.730723    1.286268
H       0.870338    1.892771    0.576309
H      -0.094771    1.966923   -0.910107
H      -0.885815    1.856211    0.673751
H      -0.025828   -0.090913   -2.102353
H      -0.499207   -2.541678   -2.139092
H       1.348925   -3.693978   -1.394789
H      -0.510153   -3.875053   -0.021608
H      -0.436578   -2.734500    2.117917
H      -0.448688   -0.212593    2.131209
