18

C       0.113115    1.477268   -0.080897
C      -0.083026   -0.030836    0.009759
C      -0.153781   -0.523743    1.454934
O      -1.290614   -0.313602   -0.712201
C      -1.479335   -1.637259   -1.126541
C      -2.728321   -2.236234   -0.488607
F      -3.816612   -1.510914   -0.759662
F      -2.927118   -3.476593   -0.967112
F      -2.624660   -2.328145    0.845476
H       1.039106    1.773935    0.420008
H       0.160851    1.796372   -1.125097
H      -0.721806    1.996715    0.399465
H       0.752663   -0.533064   -0.503671
H      -0.982702   -0.039030    1.979592
H      -0.307916   -1.603878    1.507998
H       0.777798   -0.287536    1.979152
H      -1.630933   -1.671477   -2.213344
H      -0.633972   -2.290589   -0.878767
