18

C       0.043561    1.526699   -0.005299
C      -0.061064    0.040414    0.005126
C      -1.136431   -0.760076   -0.079886
C      -0.677285   -2.165416   -0.020796
C      -1.393197   -3.312968    0.679929
C      -1.261924   -3.333550   -0.803786
C       0.822511   -2.095439    0.112208
O       1.619136   -3.007177    0.195362
N       1.107090   -0.742192    0.120243
H       0.660660    1.879140   -0.841052
H      -0.946799    1.976597   -0.099892
H       0.503178    1.902418    0.917299
H      -2.161350   -0.434599   -0.176791
H      -0.757090   -3.977790    1.254252
H      -2.359524   -3.090637    1.118220
H      -2.135821   -3.126102   -1.410930
H      -0.536588   -4.012591   -1.238860
H       2.044375   -0.384099    0.199690
