18

C      -0.176320    1.542839   -0.018344
C       0.025258    0.038363    0.033439
O       0.832227   -0.396029   -1.085919
C       1.893134   -1.222098   -0.546421
C       1.225307   -1.899618    0.652265
C       0.819436   -0.526894    1.239094
N       2.136338    0.114790    1.290823
C       2.846077   -0.221617    0.147127
O       3.905025    0.226167   -0.218471
H       0.775016    2.074112    0.069043
H      -0.630879    1.823699   -0.972081
H      -0.843868    1.869868    0.786451
H      -0.951455   -0.464505   -0.020881
H       2.332154   -1.814396   -1.344694
H       0.377299   -2.525635    0.368531
H       1.913553   -2.446276    1.298584
H       0.301658   -0.515193    2.197335
H       2.308870    0.991333    1.758726
