18

C      -0.065978    1.536103   -0.179837
C      -0.016045    0.037102    0.001563
C       1.262492   -0.727932   -0.218956
C       0.704486   -0.607997    1.180001
C       1.382029    0.188713    2.218845
C       2.620764    0.743871    2.248097
O       2.781444    1.387344    3.446234
C       1.614078    1.174502    4.091328
N       0.748312    0.480859    3.432092
H       0.857171    2.009292    0.167072
H      -0.200904    1.796978   -1.235222
H      -0.895421    1.975695    0.384439
H      -0.926528   -0.478896   -0.291445
H       1.226536   -1.698548   -0.700894
H       2.148989   -0.149570   -0.460185
H       0.213969   -1.489642    1.581671
H       3.458193    0.773860    1.573761
H       1.522256    1.598197    5.079314
