20

C       0.057180    1.436082   -0.321558
C      -0.096288    0.010765    0.147574
O       1.080005   -0.805246    0.179515
C       0.418962   -0.536287    1.418079
C       1.192373    0.268223    2.447478
O       0.301273    0.788481    3.429397
C       2.204178   -0.611259    3.159419
C       2.699144   -0.262665    4.509816
N       1.793766   -1.415373    4.319486
H       0.920414    1.928853    0.130046
H       0.190901    1.457794   -1.407980
H      -0.843363    2.015634   -0.088859
H      -0.962486   -0.504443   -0.273751
H      -0.102456   -1.395349    1.845686
H       1.736929    1.077166    1.939474
H      -0.372531    1.306737    2.979515
H       2.868188   -1.126753    2.469236
H       3.715474   -0.518815    4.795166
H       2.294851    0.629084    4.978152
H       0.856576   -1.121131    4.588507
