15

N      -0.137209    1.274761   -0.367112
C      -0.030515    0.068778    0.022601
C      -1.257097   -0.823766    0.055022
O      -1.168561   -1.819767    1.050617
C      -0.050044   -2.654172    0.841460
C       1.256043   -1.882181    0.860716
N       2.325195   -2.459277    1.236920
N       1.142658   -0.565190    0.423209
H       0.765085    1.755731   -0.386195
H      -2.128297   -0.205674    0.270906
H      -1.391275   -1.277927   -0.941967
H      -0.025490   -3.394306    1.640981
H      -0.133213   -3.185813   -0.122227
H       3.141295   -1.847609    1.161608
H       1.981622    0.000045    0.451106
