19

C      -0.050638    1.561544   -0.088664
C       0.005769    0.044732   -0.011844
C       1.049884   -0.665929   -0.886772
O       2.332397   -0.164516   -0.500310
C       1.762433   -1.214618    0.281848
C       0.747141   -0.599717    1.249463
O       1.303555    0.274648    2.193883
C      -0.102717   -1.650988    1.951420
O      -1.087715   -0.932752    2.690853
H       0.950887    1.984116    0.009916
H      -0.479524    1.889506   -1.041905
H      -0.673103    1.965687    0.715823
H      -0.988981   -0.395766   -0.130624
H       0.954258   -1.067735   -1.889030
H       2.351743   -2.117520    0.404460
H       0.599925    0.454879    2.831489
H      -0.562968   -2.333154    1.222108
H       0.538684   -2.241135    2.622833
H      -1.511343   -1.534978    3.308658
