14

N       0.080142    1.249552   -0.434595
C       0.062520    0.044721   -0.050776
N      -1.146322   -0.671057    0.006646
C      -1.114395   -2.075104    0.100728
N      -0.017906   -2.707474    0.044616
C      -2.394011   -0.038590   -0.081678
N      -3.416569   -0.685812   -0.481916
C      -2.496803    1.329681    0.391141
N      -2.787191    2.370703    0.802997
H       1.019933    1.636515   -0.377595
H       0.904872   -0.577681    0.248270
H      -2.112761   -2.492120    0.226097
H      -0.178043   -3.703871    0.176134
H      -4.259174   -0.118902   -0.406854
