21

C      -0.017933    1.497311    0.031330
C      -0.000710    0.005740   -0.034965
C      -0.018072   -0.757821   -1.139681
C       0.007976   -2.186960   -0.790393
O       0.001157   -3.133510   -1.547136
C       0.047008   -2.303047    0.754787
C      -1.194102   -3.081307    1.220395
C       1.328266   -3.049991    1.158937
C       0.040252   -0.828517    1.227079
H       0.866349    1.871202    0.562548
H      -0.044144    1.951965   -0.961621
H      -0.888984    1.849052    0.598415
H      -0.047173   -0.407469   -2.164275
H      -1.224131   -4.060578    0.734476
H      -1.177979   -3.229021    2.305583
H      -2.117120   -2.550137    0.963782
H       2.224218   -2.496257    0.857940
H       1.368703   -3.197339    2.243541
H       1.358860   -4.028542    0.671602
H       0.927574   -0.577082    1.822850
H      -0.823010   -0.598754    1.865435
