20

C      -1.449137    0.567543    0.406877
C      -0.077092    0.083814   -0.066168
O       0.646450    1.131191   -0.720612
C       0.723530   -0.486272    1.088461
C       0.888376   -1.950584    1.378311
C       0.612428   -2.918221    0.280226
C       1.451327   -2.712073   -0.736333
C       2.403501   -1.581501   -0.415660
N       2.041915   -1.121396    0.948900
H      -1.347290    1.323260    1.195411
H      -1.996442    1.015730   -0.426345
H      -2.039900   -0.260822    0.811274
H      -0.213286   -0.673817   -0.840739
H       0.884879    1.785382   -0.054020
H       0.700764    0.165775    1.965412
H       0.868659   -2.294291    2.410519
H      -0.164785   -3.670599    0.332147
H       1.458206   -3.246500   -1.679458
H       3.448607   -1.918140   -0.408495
H       2.335588   -0.747649   -1.123700
