12

N      -0.079720    1.327966    0.007731
C       0.046272   -0.025141    0.001432
O       1.112111   -0.614215   -0.009796
C      -1.241451   -0.767321    0.009170
N      -2.442958   -0.179399    0.021257
N      -3.278173   -1.203246    0.024105
N      -2.735249   -2.417023    0.015082
C      -1.429158   -2.161277    0.005484
H       0.754723    1.889338    0.002307
H      -0.985132    1.765563    0.016227
H      -4.277586   -1.072556    0.032721
H      -0.692237   -2.946422   -0.003473
