16

C       0.138057    1.456357    0.332971
N       1.101083    2.139489   -0.549741
C       2.145852    1.362611   -0.972723
C       2.123449   -0.002107   -1.096813
C       3.386665   -0.336948   -1.697084
C       4.056050    0.828130   -1.875482
O       3.287374    1.898242   -1.428968
C       0.900918   -0.680846   -0.721305
C      -0.063040    0.013405   -0.095609
H       0.468783    1.489840    1.390858
H      -0.808382    2.005463    0.285300
H       1.332963    3.088370   -0.295008
H       3.749210   -1.320492   -1.954617
H       5.023490    1.093903   -2.262632
H       0.756296   -1.725488   -0.978296
H      -0.999710   -0.452148    0.188880
