22

C       1.306769    2.075900    0.634664
C       1.118587    0.581692    0.494410
C       0.971285   -0.251067   -0.722324
N       2.188005   -0.393402    0.200405
C       3.030596    0.172756   -0.919065
C       1.849994    0.114970   -1.928263
C       1.988558   -1.092937   -2.863048
C       1.483378    1.368195   -2.728260
O       2.499772    1.757784   -3.642823
H       1.964773    2.516476   -0.113784
H       0.338318    2.583101    0.567489
H       1.730512    2.300314    1.619764
H       0.515819    0.184546    1.312065
H       0.215844   -1.033135   -0.767294
H       3.462216    1.156365   -0.715422
H       3.843745   -0.518251   -1.149870
H       2.207375   -2.002216   -2.295850
H       1.064733   -1.263858   -3.429317
H       2.808004   -0.947905   -3.576031
H       0.522214    1.200193   -3.242392
H       1.343731    2.227684   -2.070591
H       2.530938    1.107401   -4.350366
