21

C       0.279715    1.528750    0.133566
C       0.120582    0.028798   -0.033743
C       0.986607   -0.617982   -1.116085
O       1.144694   -1.949186   -0.646834
C       1.104152   -1.906179    0.787310
C       0.227554   -3.047842    1.279787
C       2.547046   -1.986973    1.309559
O       3.193835   -3.152305    0.841493
O       0.570024   -0.639428    1.146491
H       1.327465    1.786140    0.315228
H      -0.061957    2.052395   -0.765155
H      -0.313306    1.883993    0.980314
H      -0.937004   -0.219249   -0.214770
H       0.511571   -0.652554   -2.099853
H       1.954405   -0.101314   -1.204368
H       0.696264   -4.005216    1.042114
H       0.106133   -2.976673    2.363854
H      -0.755506   -2.998573    0.806062
H       3.072138   -1.068959    1.003720
H       2.550922   -2.026532    2.402954
H       3.063222   -3.156833   -0.114987
