14

O       0.041391    1.500519   -0.010474
C       0.025336    0.113373    0.076897
C       0.769916   -0.493298   -1.115941
O       1.240440    0.209049   -1.974209
C       0.575826   -0.472163    1.358902
C      -0.314851   -1.335101    1.857168
N      -1.474299   -1.411627    1.068354
C      -1.434415   -0.482314    0.041270
O      -2.320326   -0.201856   -0.720695
H       0.409649    1.704369   -0.886479
H       0.853523   -1.596129   -1.131768
H       1.550199   -0.240018    1.758871
H      -0.243952   -1.946734    2.745512
H      -2.343659   -1.821197    1.373330
