20

C      -0.174855    1.557015    0.104328
N       0.002430    0.117131    0.001020
C       0.529311   -0.482290   -1.231390
C       0.991960    0.351177   -2.425959
C       2.515370    0.514939   -2.500548
O       2.761445    1.558100   -3.440524
C       3.111431    0.823467   -1.143887
C       2.584669    0.376709   -0.004034
C       1.356578   -0.463731    0.013699
H       0.647013    2.163532   -0.301252
H      -1.098998    1.836171   -0.412256
H      -0.292419    1.814012    1.162136
H       0.020807   -1.408154   -1.491285
H       0.633645   -0.101536   -3.354417
H       0.567148    1.359413   -2.389932
H       2.960260   -0.426069   -2.869131
H       3.710138    1.606142   -3.595480
H       4.022520    1.419005   -1.139833
H       3.054089    0.607137    0.949435
H       1.425970   -1.363449    0.623935
