13

C      -0.031971    1.496858   -0.008652
C      -0.009345    0.004475   -0.036339
N      -0.042595   -0.647180   -1.159990
C      -0.018767   -2.017617   -1.108267
N       0.034417   -2.752883   -0.038457
N       0.068306   -2.066213    1.116634
C       0.052473   -0.688885    1.270413
O       0.086164   -0.150650    2.361870
H       0.857464    1.876475    0.506228
H      -0.078858    1.892785   -1.022920
H      -0.888813    1.848754    0.576363
H      -0.047039   -2.545570   -2.053692
H       0.109846   -2.627899    1.957961
