17

C       0.445444    0.906337   -0.234811
C      -0.577904    0.180263    0.623460
O       0.059781   -0.518178    1.722563
C       0.521522   -1.736571    1.465045
O       0.463217   -2.320036    0.409373
C       1.167388   -2.376284    2.705816
O       1.252586   -1.808514    3.767548
C       1.700788   -3.779768    2.515639
O       2.261453   -4.271827    3.695648
H       1.110463    0.195358   -0.730677
H      -0.070995    1.486913   -1.005509
H       1.044004    1.592711    0.370299
H      -1.261887    0.876949    1.111578
H      -1.148747   -0.542747    0.036234
H       0.874628   -4.415102    2.158580
H       2.432504   -3.758325    1.692356
H       2.162086   -3.566118    4.352608
