19

C       0.933568    0.823287    0.060228
C      -0.325675   -0.009732   -0.026500
O      -1.189238    0.012515    0.820213
C      -0.451190   -0.942513   -1.233020
C      -0.068082   -2.375905   -0.840605
C      -0.096106   -3.380432   -2.015553
O       1.263189   -3.455230   -2.419815
C       1.980889   -3.352269   -1.220142
O       1.302357   -2.405729   -0.416393
H       1.800557    0.155224    0.016957
H       1.002935    1.495474   -0.803171
H       0.943286    1.403912    0.983355
H      -1.499223   -0.936217   -1.549111
H       0.181871   -0.621215   -2.066078
H      -0.709037   -2.703607   -0.014066
H      -0.460512   -4.363354   -1.681365
H      -0.692851   -3.046863   -2.866573
H       2.022745   -4.326863   -0.700362
H       2.991894   -2.995296   -1.436292
