20

C      -0.081531    1.586396    0.187815
C      -0.058277    0.058290    0.006211
C       0.907085   -0.602405    1.005610
C      -1.439812   -0.530230    0.102376
N      -1.987817   -1.123004   -0.951991
N      -3.216036   -1.520151   -0.516862
C      -3.451187   -1.190095    0.776818
N      -4.629524   -1.574835    1.423250
C      -2.316590   -0.539137    1.220345
H       0.923119    2.006623    0.070187
H      -0.738867    2.060193   -0.547120
H      -0.442422    1.859671    1.185768
H       0.292543   -0.161001   -1.008622
H       1.919508   -0.200828    0.889782
H       0.592633   -0.418841    2.039194
H       0.949144   -1.685257    0.856509
H      -3.799194   -2.070330   -1.123295
H      -5.467750   -1.322451    0.912293
H      -4.684269   -1.187162    2.355544
H      -2.156980   -0.119566    2.200697
