17

O       0.469261    0.751450   -1.433304
C       0.559948    1.785397   -0.843947
O       0.943148    1.854974    0.445875
C       1.051677    3.179329    1.012522
C       2.309664    3.833185    0.693153
C       3.355167    4.368173    0.419384
C       4.600281    5.000430    0.104751
C       5.010036    5.195652   -1.348670
C       4.615371    6.384892   -0.529419
H       0.332091    2.777012   -1.281766
H       0.200150    3.789417    0.683149
H       0.948543    3.027874    2.090220
H       5.408706    4.789535    0.798373
H       6.057596    5.050112   -1.585659
H       4.319841    4.843376   -2.105525
H       3.655085    6.845845   -0.726530
H       5.388051    7.068233   -0.196339
