20

C       0.028921    1.618277    0.067843
C      -0.195301    0.104326   -0.037429
C       0.618637   -0.525739   -1.157747
C       2.154131   -0.757042   -1.089098
C       2.373062   -1.592250    0.190608
C       1.233107   -2.631913   -0.054450
C       0.728191   -2.054760   -1.394137
O       1.985178   -1.801972   -2.097887
H       1.076939    1.850434    0.286722
H      -0.230864    2.122287   -0.869387
H      -0.581435    2.056633    0.863111
H       0.036218   -0.365424    0.924731
H      -1.259160   -0.094458   -0.222763
H       0.391860   -0.049809   -2.116517
H       2.889418    0.002686   -1.355297
H       3.365076   -2.047939    0.194016
H       2.254425   -1.015616    1.112067
H       1.610961   -3.647750   -0.185022
H       0.469758   -2.643559    0.728147
H      -0.000890   -2.623344   -1.972458
