15

O      -0.063456   -0.022880   -0.272255
C      -0.050579    1.136769    0.004659
C      -1.062702    2.305933    0.030905
C      -0.821811    2.958630    1.397461
C       0.759190    2.965973    1.389007
C       1.371882    2.269926    2.513303
N       1.856482    1.719944    3.406841
C       0.995085    2.280828    0.021190
N      -0.024009    3.029862   -0.808633
H      -2.079072    2.231068   -0.348717
H      -1.217877    3.974013    1.436696
H      -1.234577    2.376184    2.222617
H       1.140294    3.989476    1.356230
H       2.014086    2.188632   -0.346496
H      -0.026499    2.641132   -1.752071
