19

O      -0.102748    1.456104    0.003754
C       0.009193    0.039881   -0.043709
C      -1.360898   -0.599778   -0.110185
C      -1.985732   -0.896532   -1.467177
C      -1.263796   -1.982843   -0.671992
C      -0.068946   -1.837552   -1.652849
C      -0.928419   -0.941040   -2.595590
C       0.149613    0.162106   -2.575837
C       0.722914   -0.514121   -1.297039
H       0.785169    1.822555    0.064753
H       0.518403   -0.321393    0.865064
H      -2.061362   -0.407696    0.695269
H      -3.050313   -0.753465   -1.610733
H      -1.637037   -2.882429   -0.199904
H       0.479808   -2.707591   -2.005871
H      -1.315486   -1.315187   -3.544748
H       0.830040    0.060881   -3.426557
H      -0.164476    1.203153   -2.477565
H       1.808860   -0.559988   -1.189353
