15

O       0.124588    1.498157   -0.029518
C       0.066906    0.108280    0.056116
C       0.725772   -0.511303   -1.171467
O       1.127551    0.175070   -2.077754
C       0.640884   -0.457485    1.333155
C      -0.190352   -1.294876    1.956220
C      -1.514538   -1.447012    1.259865
C      -1.423569   -0.420261    0.125699
O      -2.310569   -0.028097   -0.573821
H       0.432572    1.695104   -0.929719
H       0.806904   -1.615523   -1.182169
H       1.631496   -0.176590    1.669106
H       0.036394   -1.805555    2.884936
H      -1.666478   -2.444090    0.824145
H      -2.384348   -1.255930    1.899153
