16

N      -0.061377    1.318101    0.431804
C      -0.025453    0.126354    0.013039
C      -1.301795   -0.683380   -0.117882
C      -1.157957   -1.789099   -1.143742
O      -0.589779   -1.277714   -2.392782
C       0.575196   -2.070084   -2.202275
C       1.221652   -1.749866   -0.884778
O       1.167610   -0.472686   -0.297418
C       0.056644   -2.689188   -0.908138
H       0.883360    1.705576    0.476555
H      -1.555637   -1.124696    0.854584
H      -2.102272    0.013203   -0.374850
H      -2.092690   -2.317792   -1.345251
H       1.071763   -2.471661   -3.077958
H       2.196431   -2.192184   -0.711111
H       0.054792   -3.694847   -0.509763
