15

N      -0.847514    1.018038    0.867796
C      -0.198242   -0.026582    0.240942
N      -0.635357   -0.574636   -0.886563
N       0.271264   -1.581663   -1.062049
C       1.176907   -1.581071   -0.074274
C       2.313653   -2.557771    0.034493
C       2.370412   -3.502271   -1.075906
C       2.395867   -4.270439   -1.999536
N       0.916361   -0.604867    0.779782
H      -0.232155    1.579239    1.437875
H      -1.420667    1.569478    0.246061
H       0.212745   -2.199873   -1.854222
H       3.253349   -1.995670    0.101482
H       2.222537   -3.098844    0.984729
H       2.438563   -4.959632   -2.806740
