19

C       0.114336    1.659779    0.068416
C      -0.081394    0.133593    0.013523
C       0.590764   -0.510563   -1.194079
O      -0.004818    0.019421   -2.363915
C       0.541927   -0.491601   -3.551434
C      -0.191951    0.138815   -4.722378
O       0.067923   -0.089668   -5.873051
C       0.387875   -0.499370    1.306427
O       1.191341   -1.393914    1.386561
H       1.176779    1.914872    0.144911
H      -0.281814    2.115972   -0.840354
H      -0.402255    2.095453    0.929226
H      -1.163437   -0.061684   -0.048027
H       1.672722   -0.303862   -1.182407
H       0.472770   -1.603266   -1.159272
H       1.618092   -0.267443   -3.643481
H       0.437051   -1.588033   -3.616826
H      -1.001341    0.837770   -4.415342
H      -0.072501   -0.059204    2.221222
