16

C      -0.044893    1.464208   -0.164632
C       0.003332   -0.059208    0.065270
C       0.796282   -0.393744    1.250931
N       1.415608   -0.633320    2.196439
C      -1.417201   -0.637826    0.208143
O      -2.227010   -0.383862   -0.959364
C      -2.483776   -1.782107   -1.222909
C      -1.601829   -2.151576   -0.023325
O      -1.207854   -3.151692    0.485678
H       0.960323    1.859202   -0.327393
H      -0.659034    1.673485   -1.042601
H      -0.479910    1.972560    0.700198
H       0.478220   -0.534837   -0.801726
H      -1.889720   -0.262227    1.125846
H      -3.542840   -2.047266   -1.118027
H      -2.119869   -2.107733   -2.204643
