21

C      -0.334460    1.405295    0.078187
C      -0.113218   -0.086783    0.028002
C      -0.442947   -0.952024    1.197100
N       0.959840   -0.649501    0.878461
C       1.628045   -1.714199    0.100754
C       0.721488   -2.075211   -1.099708
C      -0.098166   -0.804546   -1.308212
C      -1.191482   -0.685859   -2.299749
N       0.122185   -0.066255   -2.564567
H       0.449509    1.946694   -0.462738
H      -1.305102    1.681808   -0.350323
H      -0.315637    1.753827    1.113202
H      -0.805944   -0.493579    2.113288
H      -0.823106   -1.955016    1.019360
H       2.582348   -1.305913   -0.247551
H       1.847692   -2.568471    0.748141
H       1.287821   -2.324069   -1.998760
H       0.070461   -2.925034   -0.871092
H      -1.438696   -1.529048   -2.939815
H      -2.034227   -0.040334   -2.063005
H       0.063728    0.936766   -2.407263
