20

C       0.045121    1.529480   -0.059045
C      -0.019617    0.001193   -0.031338
O       0.740960   -0.533941    1.051403
C      -1.437281   -0.524802    0.002348
C      -2.588346   -0.269247   -1.021188
C      -3.192427   -1.203652    0.064452
C      -1.872857   -2.021786    0.000018
C      -2.504569   -0.302691    1.128734
H       1.087029    1.860168   -0.062102
H      -0.452217    1.932071   -0.947144
H      -0.447688    1.955900    0.823103
H       0.472364   -0.393737   -0.929685
H       0.329452   -0.229207    1.867997
H      -2.986817    0.748285   -1.071332
H      -2.456116   -0.696392   -2.019678
H      -4.209572   -1.594611    0.101240
H      -1.684911   -2.581215   -0.921167
H      -1.607236   -2.606385    0.884241
H      -2.299925   -0.765812    2.099113
H      -2.900444    0.710660    1.243497
