16

O      -0.008443   -0.010059   -0.053855
C      -0.021922    1.196990   -0.022409
C      -1.235861    2.077377    0.008764
C      -1.158258    3.249968    0.983645
C       0.125886    3.341539    1.788697
N       1.240723    3.253531    0.828109
C       0.714154    3.450927   -0.522508
C      -0.814623    3.459254   -0.463703
C       1.187347    2.092732   -0.102818
H      -2.199953    1.641344   -0.218499
H      -2.090623    3.614377    1.400496
H       0.195982    4.314503    2.287453
H       0.225282    2.562049    2.550175
H       1.258984    4.092970   -1.204795
H      -1.407187    4.048124   -1.149873
H       2.144717    1.654029   -0.360818
