23

C       0.078544   -1.051057    1.745669
C       0.063086   -0.370767    0.375311
O       1.105615   -0.890869   -0.452084
C      -1.301863   -0.427477   -0.340967
C      -2.409532    0.201380    0.499413
O      -2.035691    1.535964    0.816798
C      -1.305359    0.121679   -1.802124
C      -2.106026   -1.128641   -2.254787
C      -1.765869   -1.810850   -0.901580
H       1.099452   -1.058157    2.137266
H      -0.556894   -0.525346    2.463085
H      -0.269836   -2.090090    1.680173
H       0.318394    0.685900    0.502015
H       1.042250   -1.851621   -0.438148
H      -3.351923    0.182218   -0.070483
H      -2.572067   -0.393957    1.411781
H      -2.755541    1.945394    1.304918
H      -1.767286    1.101133   -1.944812
H      -0.295734    0.135894   -2.214998
H      -3.176004   -0.933697   -2.365578
H      -1.759862   -1.635112   -3.158666
H      -0.940709   -2.522929   -0.996573
H      -2.581867   -2.309940   -0.369596
