14

O      -0.051713    1.418272   -0.080810
C       0.013538    0.027922   -0.016025
C      -0.020983   -0.662869    1.409589
C      -1.504440   -0.151981    1.502823
C      -1.392570   -0.661872    0.014159
C      -2.396265   -0.653985   -1.006620
N      -3.204976   -0.666543   -1.833193
C      -0.621016   -1.850906    0.667934
O      -0.581776   -3.035153    0.618954
H       0.839687    1.771937    0.000776
H       0.728759   -0.387551   -0.733704
H       0.742587   -0.647847    2.181954
H      -2.184449   -0.696434    2.156858
H      -1.603044    0.926974    1.586004
