18

C       1.061115    1.100119    0.219333
N       0.657368   -0.037220   -0.624818
C      -0.283954    0.490080    0.378103
C      -0.588406   -0.437329    1.487035
O      -1.011220    0.076507    2.755641
C      -0.773177   -1.261997    3.278867
C      -1.916200   -2.104901    2.656645
C      -1.200984   -1.847006    1.331187
C       0.133703   -1.615652    2.039668
H       1.836627    0.873824    0.944388
H       1.122292    2.088158   -0.228399
H       0.392394    0.290318   -1.549455
H      -1.132913    1.073311    0.024913
H      -0.520328   -1.275035    4.336819
H      -1.849530   -3.156333    2.948699
H      -2.932797   -1.726167    2.803179
H      -1.363279   -2.297912    0.361201
H       1.124771   -2.021626    1.897144
