16

N       0.007589    1.326282    0.148306
C       0.011111   -0.032497    0.022749
N      -1.053833   -0.771366    0.026755
C      -0.570465   -2.160836   -0.056315
C       0.076078   -2.359584   -1.446202
N       1.304955   -1.490334   -1.390213
C       1.269090   -0.858112   -0.035282
C       0.713431   -2.045229    0.803160
O       1.140034   -2.648541    1.739639
H       0.770347    1.829844   -0.275751
H      -0.898067    1.762808    0.045479
H      -1.313505   -2.897052    0.240736
H       0.337271   -3.406643   -1.632108
H      -0.593861   -2.015319   -2.239478
H       2.131722   -2.079231   -1.433536
H       2.215119   -0.403452    0.249497
