21

C      -0.323647    1.484748   -0.095888
C       0.123510    0.015396    0.015084
C       0.821886   -0.478645   -1.205670
C       2.063834   -0.915374   -1.431917
C       2.029514   -1.247128   -2.940417
C       3.173986   -1.960362   -3.602453
C       1.323713    0.029983   -3.507501
C       0.216382   -0.610942   -2.626988
O       0.716736   -1.919791   -3.045702
H       0.537139    2.145070   -0.239534
H      -1.002144    1.631727   -0.942675
H      -0.848808    1.800257    0.810682
H       0.780024   -0.105181    0.884162
H      -0.761825   -0.608005    0.204773
H       2.903507   -1.032062   -0.760869
H       3.349878   -2.929016   -3.123890
H       2.964262   -2.132243   -4.661484
H       4.090512   -1.367015   -3.520767
H       1.716052    1.012262   -3.234759
H       1.111807   -0.048706   -4.577379
H      -0.852410   -0.462597   -2.781872
