21

C      -0.104766    1.644474   -0.003183
C       0.038595    0.125942    0.022756
C       0.887660   -0.683011   -0.980829
C       2.312711   -0.128216   -1.175409
C       3.065627   -0.033644    0.157114
C       2.812544    1.019916    1.210772
C       2.249385   -0.369054    1.386467
C       0.824092   -0.757776    1.041461
O       0.927061   -1.771847   -0.017263
H       0.780897    2.161432   -0.376637
H      -0.936029    1.922203   -0.659951
H      -0.332559    2.042113    0.991683
H      -0.963714   -0.312451    0.003487
H       0.435621   -0.986677   -1.929958
H       2.851839   -0.825027   -1.825512
H       2.277330    0.829631   -1.709920
H       4.080653   -0.414876    0.125126
H       3.656526    1.280747    1.841491
H       2.153828    1.851709    1.013001
H       2.703769   -0.998374    2.145490
H       0.269276   -1.130570    1.906547
