14

O      -0.010523    0.149411   -0.767605
C      -0.015272    1.163475   -0.119729
C      -1.291878    1.761652    0.463737
N      -1.123401    3.177442    0.748594
C      -0.026903    3.636758    1.459632
O      -0.031713    4.660736    2.113407
N       1.075660    2.805792    1.346879
C       1.254869    1.952771    0.183169
H      -2.100531    1.614881   -0.256215
H      -1.540237    1.170020    1.361312
H      -1.958218    3.704740    0.956774
H       1.906026    3.222106    1.741186
H       2.067370    1.243148    0.356602
H       1.503682    2.519666   -0.730104
