15

O       0.353387    0.972742   -0.593284
C      -0.085105   -0.279635   -0.189890
C      -0.110202   -0.625224    1.341944
C      -1.498037   -1.294821    1.109051
C      -1.632237   -0.481850   -0.221749
C      -2.387332    0.752450   -0.062052
N      -3.009309    1.715682    0.082227
C       0.975186   -1.419507    1.882776
N       1.849857   -2.066401    2.275122
H       1.310818    0.960734   -0.695673
H       0.392448   -1.097432   -0.743680
H      -0.221877    0.303336    1.908583
H      -1.408968   -2.363218    0.909608
H      -2.256729   -1.122946    1.870205
H      -2.014279   -1.026364   -1.087161
