17

N       0.132619    1.065990   -0.382850
C       0.093171   -0.127343    0.018195
O      -0.864299   -0.956403   -0.460399
C      -0.846352   -2.309597    0.016505
C      -1.234427   -2.399232    1.424861
C      -1.550975   -2.485004    2.580607
C      -1.783211   -3.120004   -0.871894
C      -3.021429   -2.520266   -1.415117
N      -1.878814   -2.828744   -2.301401
H       0.905790    1.558339    0.059677
H       0.766635   -0.604627    0.740300
H       0.173335   -2.707520   -0.099842
H      -1.835176   -2.557003    3.601886
H      -1.767369   -4.177747   -0.621188
H      -3.899133   -3.142080   -1.562617
H      -3.220084   -1.478931   -1.183582
H      -1.382575   -1.960943   -2.495049
