20

O      -0.852623    1.291991    0.584029
C      -0.173006    0.132602    0.097691
C       0.721467   -0.498217    1.173052
C      -0.268190   -1.193347    2.134982
C      -1.541729   -1.507268    1.287815
C      -2.816261   -0.861600    1.880178
C      -3.126579   -1.345555    3.223855
N      -3.356064   -1.738376    4.286587
C      -1.239417   -0.940966   -0.125690
H      -0.191271    1.926580    0.877927
H       0.377600    0.373431   -0.822273
H       1.385047   -1.230690    0.698559
H       1.362374    0.236958    1.671530
H       0.158866   -2.095507    2.578214
H      -0.523532   -0.530590    2.966531
H      -1.709586   -2.586237    1.234446
H      -2.684833    0.225004    1.910160
H      -3.678604   -1.065059    1.234843
H      -2.121710   -0.533696   -0.627038
H      -0.826245   -1.726011   -0.766676
