20

C       1.576345    1.822333    1.627722
C       0.870429    0.458973    1.734236
C       1.243548    0.311782    0.237372
O       2.044231    1.520878    0.297309
C       2.081235   -0.848492   -0.275724
C       2.455410   -2.096830    0.563278
C       0.976389   -2.502617    0.373644
N       1.345928   -1.981630   -1.029572
C       2.651317   -2.768958   -0.811079
H       0.902227    2.688925    1.636529
H       2.404413    2.010225    2.320377
H       1.377813   -0.253035    2.387925
H      -0.194404    0.472215    1.971206
H       0.386575    0.449848   -0.438574
H       2.885172   -0.419105   -0.883839
H       3.084704   -2.164838    1.458009
H       0.734106   -3.569025    0.388250
H       0.196567   -1.923338    0.871180
H       3.477464   -2.430079   -1.441834
H       2.515205   -3.851801   -0.874899
