14

O      -0.002534    0.018021    0.084336
C      -0.037621    1.215071    0.024330
C      -1.263973    2.146701   -0.021792
C      -0.533801    3.499236    0.026960
O      -0.007013    3.704343    1.335678
C       1.170668    2.881132    1.392289
C       1.144185    2.203397    0.002673
O       0.603312    3.269154   -0.793554
H      -1.811973    2.018837   -0.960471
H      -1.939167    1.964003    0.816081
H      -1.077292    4.384585   -0.298780
H       2.058377    3.510995    1.512828
H       1.105268    2.173279    2.224689
H       2.084888    1.829634   -0.392527
