17

C      -0.862892    1.435118    0.880417
C      -0.504696    0.047195    0.364972
C       0.716781   -0.533972    1.112160
C       1.092911   -1.856227    0.618511
N       1.367648   -2.899085    0.202793
O      -1.628488   -0.811626    0.580158
C      -2.010880   -1.617527   -0.511883
C      -2.582634   -0.826897   -1.619702
N      -3.011815   -0.185844   -2.479844
H      -0.020196    2.123897    0.769170
H      -1.712423    1.830649    0.319430
H      -1.140136    1.387771    1.937997
H      -0.274700    0.099739   -0.706450
H       1.573396    0.141025    1.010635
H       0.478142   -0.607542    2.178692
H      -1.179103   -2.220020   -0.899011
H      -2.773890   -2.306094   -0.137539
