16

N       0.000292   -1.152542   -0.125512
C       0.039526    0.000229   -0.039464
C       0.042403    1.419090    0.129869
O       0.242776    2.257846   -1.020416
C       1.140372    2.414535    0.075871
C       0.452634    3.293663    1.135138
C      -0.685560    2.242358    1.181988
C      -2.163631    2.415473    1.335148
C      -1.364769    1.696558    2.400606
H       2.196001    2.263530   -0.114992
H       1.013921    3.352774    2.070931
H       0.190982    4.296336    0.789986
H      -2.529327    3.412535    1.556414
H      -2.818096    1.828173    0.700165
H      -1.474703    0.619706    2.479900
H      -1.190482    2.200540    3.345455
