21

C      -0.198801    1.586304    0.012509
C       1.187469    1.003958   -0.003965
C       2.249270    1.077105   -1.111948
C       3.333776    0.811752   -0.025634
C       2.270378    1.065227    1.084131
C      -0.004630    0.098316    0.002595
C      -0.421412   -0.936812    1.042637
O      -0.783082   -1.868713   -0.000562
C      -0.441434   -0.925546   -1.040380
H      -0.551190    2.048475    0.931366
H      -0.568738    2.058350   -0.894353
H       2.173501    0.343815   -1.920316
H       2.327862    2.073821   -1.557382
H       3.688261   -0.221703   -0.034631
H       4.201034    1.474931   -0.030383
H       2.357620    2.057075    1.538726
H       2.210084    0.323228    1.885827
H       0.377917   -1.330693    1.685507
H      -1.282437   -0.667364    1.669137
H      -1.314313   -0.649426   -1.647263
H       0.345350   -1.312366   -1.702718
