20

C      -0.022976    1.474693    0.026956
C       0.020281   -0.027347    0.025919
C       0.652061   -0.964659   -1.058838
C       0.066232   -1.920360    0.037051
O       0.111051   -3.295276    0.101763
C       0.669668   -0.970769    1.098850
C      -1.169978   -1.007825    0.044122
C      -2.478343   -1.035645    0.702126
N      -2.346684   -1.130907   -0.789777
H       0.985551    1.898999   -0.011096
H      -0.573600    1.855346   -0.841177
H      -0.512084    1.855953    0.930169
H       0.165349   -0.978488   -2.037421
H       1.742070   -0.936835   -1.140363
H      -0.478309   -3.638134   -0.580521
H       1.760925   -0.943285    1.154246
H       0.206951   -0.980992    2.088915
H      -2.844067   -1.940951    1.179528
H      -2.875459   -0.113023    1.119281
H      -2.595248   -0.238226   -1.212190
