17

C       0.112793    1.576131    0.376780
C       0.000848    0.119501   -0.107252
C      -1.399682   -0.377487   -0.161787
C      -2.214818   -0.787412   -1.179365
O      -1.915604   -0.852592   -2.484512
C      -2.952206   -1.335344   -3.339937
N      -3.422226   -1.131338   -0.638620
N      -3.399427   -0.960248    0.618678
O      -2.121164   -0.477422    0.966000
H       1.161052    1.885784    0.408307
H      -0.425051    2.253677   -0.292565
H      -0.307658    1.686052    1.379887
H       0.422050    0.017660   -1.111990
H       0.587878   -0.531768    0.552050
H      -3.835923   -0.691328   -3.289082
H      -2.534602   -1.319897   -4.346972
H      -3.242857   -2.355380   -3.068827
