19

C      -0.181103    1.622642    0.466757
C       0.084884    0.192620    0.078831
C      -1.105159   -0.777776   -0.153292
C      -0.412325   -1.842439    0.775640
C      -0.192704   -3.175465    0.253379
C       0.000102   -4.273906   -0.198249
C       0.819165   -0.889913    0.931283
C       1.823005   -0.914505   -0.228254
O       1.070009    0.072163   -0.975658
H       0.747622    2.130891    0.742301
H      -0.626064    2.162637   -0.376906
H      -0.876946    1.678408    1.310217
H      -2.072043   -0.436080    0.223786
H      -1.204503   -1.076736   -1.197334
H      -0.943789   -1.909995    1.729975
H       0.162618   -5.247056   -0.590721
H       1.203220   -0.738291    1.939391
H       2.822085   -0.540318    0.026780
H       1.918558   -1.865701   -0.763904
