23

C       1.424560   -0.843445    0.007264
C       0.103480   -0.097702   -0.020174
O       0.055722    1.110519   -0.077790
C      -1.191677   -0.936908   -0.008352
O      -0.931506   -2.300653   -0.315504
C      -2.043287   -0.757355    1.292412
C      -2.532835    0.696486    1.419099
C      -3.269655   -1.685089    1.193172
C      -1.215314   -1.129243    2.538752
H       2.242849   -0.123232   -0.019245
H       1.508627   -1.456477    0.912715
H       1.488091   -1.529025   -0.842508
H      -1.792293   -0.565822   -0.847228
H      -0.568868   -2.727967    0.467289
H      -3.132761    0.984020    0.549220
H      -3.165114    0.795309    2.308307
H      -1.707528    1.404910    1.497296
H      -2.980863   -2.733780    1.093267
H      -3.891827   -1.581467    2.088316
H      -3.885226   -1.427573    0.324849
H      -0.359151   -0.459811    2.671858
H      -1.833262   -1.055419    3.439014
H      -0.840577   -2.160305    2.501827
