23

C       0.227616    1.311442   -0.347152
C      -0.027689   -0.068138    0.236046
O      -1.174151   -0.614782   -0.388656
C      -1.491689   -1.911539    0.037213
C      -2.222312   -2.104893    1.402073
C      -3.205371   -3.084031    0.692686
C      -2.707847   -2.532421   -0.649542
C      -3.541269   -1.812661   -1.668337
C      -2.818750   -3.089933   -2.034474
H       1.109647    1.764831    0.115082
H       0.394469    1.246709   -1.426202
H      -0.631082    1.966072   -0.172877
H       0.842122   -0.726544    0.070877
H      -0.179111   -0.003168    1.325653
H      -0.602572   -2.560593   -0.034475
H      -1.642437   -2.490172    2.243519
H      -2.718357   -1.176091    1.695858
H      -2.934938   -4.133410    0.847512
H      -4.268417   -2.962282    0.914935
H      -4.620887   -1.848045   -1.559665
H      -3.151369   -0.877642   -2.054041
H      -1.952298   -3.016640   -2.684854
H      -3.408169   -3.990659   -2.175700
