22

C      -0.267430    1.512070   -0.156949
C       0.096639    0.043777   -0.015330
N       1.074774   -0.519357   -1.020573
C       2.390104    0.081536   -0.712941
C       1.921683   -1.030776    0.136554
C       2.540914   -2.396603    0.159442
C       0.930076   -0.513580    1.192734
C       1.437871    0.428110    2.277714
O       0.302364   -1.643415    1.786487
H       0.594279    2.179181   -0.065577
H      -0.723442    1.688320   -1.136738
H      -0.994722    1.804288    0.608503
H      -0.808393   -0.565547   -0.092862
H       3.138169   -0.152155   -1.464987
H       2.452179    1.098078   -0.334965
H       2.933001   -2.648747   -0.830124
H       3.370359   -2.439213    0.875157
H       1.804444   -3.149701    0.448427
H       1.971659    1.289117    1.868956
H       0.600830    0.815648    2.872755
H       2.111507   -0.109470    2.952167
H      -0.378514   -1.322869    2.387445
