13

O       0.104355    1.322573    0.074545
C       0.068832   -0.020697    0.047390
N       0.074477   -0.611015   -1.138046
C       0.038900   -1.954641   -1.161130
C      -0.002982   -2.745514   -0.017484
C      -0.007947   -2.095494    1.219305
C       0.028164   -0.714945    1.267169
C       0.045833   -2.574269   -2.460743
N       0.050375   -3.100778   -3.490586
H       0.128919    1.616726   -0.847194
H      -0.030422   -3.824138   -0.097454
H      -0.040015   -2.672457    2.136949
H       0.026066   -0.163947    2.199032
