18

C      -0.017809    1.482309   -0.139044
C       1.350488    2.068504    0.114392
C       2.444270    1.355356    0.380955
C       2.498147   -0.149135    0.473637
C       1.154533   -0.764674    0.227227
C       0.041478   -0.004838   -0.045897
N      -1.019140   -0.860266   -0.220248
C      -0.595834   -2.159142   -0.061408
C       0.749816   -2.132448    0.217216
H      -0.737085    1.904853    0.581701
H      -0.380943    1.812080   -1.126350
H       1.416081    3.152649    0.069349
H       3.384017    1.876562    0.548565
H       3.245901   -0.528241   -0.240534
H       2.891572   -0.436106    1.461442
H      -1.961203   -0.581279   -0.431717
H      -1.284178   -2.983109   -0.159900
H       1.375124   -2.994973    0.394305
