22

C       0.101689    1.580010   -0.100052
C       0.078960    0.072954    0.168362
O       0.588656   -0.242042    1.457706
C      -1.316065   -0.523575    0.024306
O      -2.106426    0.065921    1.047697
C      -2.019351   -0.537416   -1.359232
N      -2.533884   -1.881882   -1.027498
C      -2.681110   -2.855420   -2.085242
C      -1.460254   -2.067814   -0.027922
H       1.110043    1.967616    0.065429
H      -0.190641    1.803535   -1.132027
H      -0.589467    2.098577    0.570070
H       0.741932   -0.432568   -0.543018
H      -0.108854    0.000997    2.079504
H      -2.965858   -0.369953    1.034740
H      -2.780666    0.228370   -1.541878
H      -1.295335   -0.539030   -2.192181
H      -1.747874   -3.014636   -2.658762
H      -2.988507   -3.818437   -1.663965
H      -3.458781   -2.531274   -2.784972
H      -0.557848   -2.552941   -0.434644
H      -1.758285   -2.578093    0.894157
