25

C      -1.554415   -0.884526   -0.545245
C      -0.152445   -0.331185   -0.278138
C       0.886575   -0.610399   -1.367973
C       2.215305    0.116395   -1.105319
C       2.128325    1.643886   -1.185015
C       1.091881   -2.081904   -1.813378
C       0.748704   -1.564516   -3.225549
C      -0.376604   -2.222913   -3.997316
O       0.383037   -0.266044   -2.697412
H      -1.937491   -0.505813   -1.495846
H      -1.568852   -1.978489   -0.584694
H      -2.242781   -0.579485    0.248784
H      -0.227219    0.753865   -0.143765
H       0.241212   -0.730678    0.666157
H       2.600050   -0.199311   -0.126351
H       2.942066   -0.234004   -1.848352
H       3.127298    2.088980   -1.148891
H       1.654236    1.942802   -2.124145
H       1.550982    2.072262   -0.360395
H       2.094768   -2.487304   -1.665947
H       0.358001   -2.786393   -1.416870
H       1.634863   -1.472909   -3.870471
H      -1.258529   -2.360352   -3.364876
H      -0.662080   -1.606471   -4.855845
H      -0.059066   -3.202499   -4.371964
