12

N      -0.299315    1.336303    0.013920
C      -0.045390    0.107893    0.003301
O      -1.119469   -0.761750    0.009171
C      -0.860246   -2.101275   -0.002141
O       0.226115   -2.599135   -0.016626
C      -2.194703   -2.837515    0.006470
C      -2.048910   -4.287413   -0.001134
N      -1.965463   -5.438241   -0.006826
H       0.567130    1.872726    0.008220
H       0.914638   -0.407194   -0.010134
H      -2.762332   -2.517840    0.887561
H      -2.777313   -2.510375   -0.862064
