23

C      -0.092453    1.508255    0.091431
C       0.008076    0.001714    0.045811
C       0.896201   -0.740136   -0.996270
C       0.838930   -1.889188    0.016304
C      -0.674017   -2.143268    0.434265
C      -0.289046   -1.755854    1.884653
C       0.749990   -0.856426    1.193042
C       1.932102   -0.251294    1.906943
C      -1.294777   -0.824565   -0.067147
H       0.891772    1.978682    0.190512
H      -0.552783    1.896917   -0.824985
H      -0.708733    1.841925    0.934601
H       0.490513   -0.877616   -2.004608
H       1.905216   -0.322093   -1.066210
H       1.520653   -2.739833    0.021936
H      -1.187025   -3.077352    0.206767
H      -1.063549   -1.313821    2.522346
H       0.208342   -2.569261    2.423935
H       2.467252   -1.006958    2.492812
H       2.649414    0.195341    1.209290
H       1.614822    0.538608    2.598664
H      -2.101419   -0.471581    0.583934
H      -1.671879   -0.860674   -1.094205
