16

N       0.039447    1.429470   -0.074859
C       0.086864    0.019639   -0.044997
C      -0.053312   -0.870336   -1.299706
C       0.590760   -2.197009   -0.951323
N       0.024063   -2.056736    0.455852
C      -0.982579   -1.044551   -0.133114
C       0.798938   -0.855078    0.991950
C       2.255750   -0.949653    1.017103
N       3.410533   -1.008015    1.020505
H       0.122348    1.825815   -1.000030
H      -0.759693    1.827048    0.400851
H      -0.258970   -0.420937   -2.264116
H       0.103319   -3.045873   -1.435890
H       1.677308   -2.310429   -1.001354
H      -2.053372   -1.061212    0.008873
H       0.436915   -0.643520    2.001997
