18

O       0.020984    1.429311   -0.539464
C       0.052973    0.142204    0.057296
C      -1.314099   -0.423939    0.243174
C      -1.914507   -1.784300    0.127379
C      -2.807417   -1.541320    1.349513
O      -2.247046   -1.999687    2.556800
C      -2.621902   -0.025371    1.051244
C      -3.284211    0.111233   -0.321624
N      -2.199257   -0.749001   -0.919733
H      -0.412802    1.322339   -1.393810
H       0.647612   -0.567840   -0.538985
H       0.558425    0.268283    1.021111
H      -1.470616   -2.712564   -0.211564
H      -3.832898   -1.923313    1.333039
H      -1.311383   -1.764383    2.561072
H      -2.725176    0.703794    1.852134
H      -4.303806   -0.272826   -0.445725
H      -3.208532    1.109850   -0.757270
