16

O       0.206553    1.214894   -0.264338
C       0.022488   -0.126040    0.088220
C      -1.443509   -0.509114   -0.006054
O      -2.299862    0.273412   -0.343433
O      -1.653059   -1.786788    0.337186
C      -2.995553   -2.250459    0.271239
C      -3.358319   -3.164417   -0.858553
C      -3.174591   -3.705152    0.547039
H      -0.676541    1.550533   -0.479468
H       0.595767   -0.797454   -0.568905
H       0.364921   -0.323463    1.115091
H      -3.712143   -1.521424    0.626982
H      -4.357110   -3.091066   -1.273131
H      -2.579690   -3.388927   -1.578343
H      -2.276524   -4.280049    0.741485
H      -4.045179   -4.014619    1.113610
