19

C       0.491546    1.564126   -0.094668
C       0.029975    0.116175    0.105321
C       0.347062   -0.798261   -1.099076
C       1.706665   -1.412528   -0.750267
C       1.743159   -1.426788    0.778971
O       2.487599   -2.064744    1.473825
N       0.739574   -0.543008    1.214633
C       0.402212   -0.240669    2.530374
N       1.019861   -0.670673    3.551459
H       1.554149    1.607124   -0.354691
H      -0.079990    2.036089   -0.900171
H       0.345399    2.154529    0.814933
H      -1.044175    0.112621    0.321525
H      -0.410305   -1.584098   -1.174024
H       0.343729   -0.241612   -2.038574
H       1.860865   -2.421869   -1.134452
H       2.544380   -0.800239   -1.103482
H      -0.479176    0.414308    2.561073
H       0.562461   -0.323689    4.393612
