19

O       0.038114   -0.059307    0.152548
C      -0.006546    1.140456    0.025348
C      -1.333534    1.898832   -0.109232
C      -1.290098    3.173398   -0.993188
C       0.086464    3.879611   -0.939374
C       1.166743    2.844602   -1.320024
C       1.247934    2.024738   -0.006550
C       1.119258    3.136641    1.027880
C       0.476738    4.180687    0.501910
H      -2.091506    1.191838   -0.454829
H      -1.613969    2.176539    0.914156
H      -1.494846    2.902469   -2.035489
H      -2.089906    3.856300   -0.685982
H       0.081020    4.759686   -1.588995
H       0.898177    2.242534   -2.194623
H       2.129483    3.327578   -1.511666
H       2.131476    1.392170    0.092406
H       1.445435    3.026562    2.055141
H       0.184624    5.082638    1.027300
