16

N      -0.475829    0.821613    0.962825
C      -0.201298   -0.066339    0.084939
N      -1.131657   -0.553065   -0.789573
C      -2.505432   -0.100642   -0.780126
C      -3.298818   -0.638214    0.437587
C      -4.696106   -0.221303    0.393829
N      -5.799641    0.115433    0.328205
C       1.183919   -0.654243   -0.092560
O       2.116681   -0.320306    0.586429
H       0.380561    1.052681    1.469164
H      -0.882130   -1.332288   -1.374565
H      -2.512209    0.992599   -0.745334
H      -2.982716   -0.418005   -1.710015
H      -3.254174   -1.732469    0.463129
H      -2.830729   -0.260797    1.351363
H       1.292101   -1.419530   -0.894976
