19

O       0.150333    1.394621    0.129453
C       0.101120    0.008732    0.037362
C       1.101735   -0.619361    0.994909
C       1.449648   -2.047262    0.552389
C       0.191432   -2.796524    0.086101
C      -0.693608   -1.876814   -0.752563
C      -1.319197   -0.629231   -0.086670
O      -1.441510    0.003664   -1.426740
C      -0.085340   -0.603467   -1.402164
H      -0.530364    1.708065   -0.484844
H       1.996502    0.009855    1.027221
H       0.675969   -0.609721    2.006130
H       2.151692   -1.990193   -0.288803
H       1.963624   -2.592271    1.349985
H       0.471263   -3.683295   -0.492686
H      -0.385948   -3.160187    0.946420
H      -1.397932   -2.388274   -1.410770
H      -2.178005   -0.552849    0.583273
H       0.520406   -0.490639   -2.302750
