19

N      -0.012118   -1.255871    0.184840
C      -0.041365   -0.103258    0.268337
C      -0.039116    1.354481    0.345346
C       1.307517    1.996255   -0.013421
C       2.571558    1.288384    0.313853
N       2.119802    1.416416   -1.086956
C       1.233947    3.498169    0.014395
C       2.207853    4.335583   -0.767297
C       0.769627    4.252361   -1.210763
H      -0.811908    1.738726   -0.331713
H      -0.334571    1.655074    1.357826
H       3.453606    1.871404    0.561601
H       2.516870    0.309271    0.781179
H       1.726718    0.531751   -1.401202
H       0.914547    3.897870    0.974212
H       2.558616    5.256923   -0.316209
H       2.936175    3.806187   -1.370073
H       0.567844    3.669804   -2.103368
H       0.127169    5.115109   -1.075419
