23

C       0.032374    1.531906    0.012074
C      -0.027801    0.032286    0.065526
C       1.127998   -0.853519   -0.328628
C       0.582018   -0.956590    1.076379
C       1.409879   -0.718615    2.306143
C      -0.696189   -1.781061    1.018069
C      -0.834734   -3.275643    1.061670
C      -1.397345   -2.418645    2.178097
C      -1.328002   -0.789256    0.019560
H       1.029769    1.900779    0.274183
H      -0.198465    1.903661   -0.994223
H      -0.685482    1.988124    0.703946
H       0.991695   -1.669462   -1.035836
H       2.085615   -0.347096   -0.415984
H       2.143250    0.077495    2.140153
H       0.786759   -0.426508    3.159006
H       1.968752   -1.617581    2.595982
H      -1.534581   -3.745959    0.378042
H       0.048475   -3.870782    1.272785
H      -0.891326   -2.442879    3.138359
H      -2.475433   -2.310139    2.249240
H      -2.180445   -0.253155    0.449103
H      -1.617647   -1.183542   -0.961755
