18

C      -0.079185    1.550225    0.062110
C      -0.045612    0.010817   -0.002363
C      -1.456616   -0.594925   -0.010146
O      -2.075632   -0.242035    1.234458
C      -3.395971   -0.546380    1.330510
N      -3.880771   -0.124031    2.536761
O      -4.043101   -1.081311    0.462542
C       0.687525   -0.462400   -1.174647
C       1.270866   -0.844658   -2.153492
H       0.934196    1.955601    0.111766
H      -0.566536    1.960117   -0.827685
H      -0.634179    1.874607    0.945040
H       0.461321   -0.362653    0.897838
H      -2.049603   -0.206272   -0.842664
H      -1.414890   -1.683869   -0.104118
H      -3.229955    0.099956    3.270069
H      -4.783121   -0.480924    2.799707
H       1.795001   -1.185509   -3.011823
