15

N       0.222937    1.390732   -0.142883
C       0.094649   -0.012512    0.043584
C       0.107183   -0.461522    1.524141
N      -1.362270   -0.633993    1.490054
C      -1.404993   -0.671429    0.017568
C      -2.437922    0.167400   -0.588084
N      -3.190595    0.897733   -1.073098
C      -1.393859   -2.013193   -0.569391
N      -1.326362   -3.090358   -0.985123
H       0.087439    1.670127   -1.108202
H      -0.422749    1.918711    0.435306
H       0.769338   -0.544588   -0.626433
H       0.678041   -1.384314    1.679317
H       0.445197    0.297545    2.234868
H      -1.754982   -1.442452    1.959063
