13

N      -0.010361    1.352024    0.259043
C       0.024837   -0.005293    0.019647
N      -1.090153   -0.684063   -0.170472
O      -0.674431   -2.034139   -0.298035
C       0.653546   -2.070693   -0.178811
O       1.269921   -3.261618   -0.310487
C       0.628049   -4.404300    0.131050
O       1.114275   -5.472626   -0.040371
C       1.184210   -0.840566    0.020147
H       0.773107    1.868665   -0.111942
H      -0.897313    1.777850    0.026112
H      -0.324204   -4.185766    0.633120
H       2.216754   -0.577893    0.168637
