20

C      -0.169677    1.385227    0.012784
O      -0.276470    0.011059   -0.319513
C       0.813159   -0.502299   -1.016459
C       0.676138   -2.019000   -1.027305
C       1.509944   -2.684405   -2.123155
C       0.756573   -2.702026   -3.459264
N       0.237699   -1.456766   -3.988596
C       0.322795   -0.322422   -3.454392
O       0.924956    0.121567   -2.303959
H       0.726258    1.578802    0.621122
H      -0.128784    2.013783   -0.883636
H      -1.057413    1.639672    0.595092
H       1.753020   -0.199266   -0.530312
H       0.966507   -2.370663   -0.032356
H      -0.384596   -2.265286   -1.149363
H       2.473584   -2.172771   -2.232417
H       1.736961   -3.720319   -1.846928
H       1.390611   -3.137386   -4.242584
H      -0.100223   -3.384951   -3.369766
H      -0.068704    0.539872   -3.996294
