14

N       0.029158    1.456393    0.172211
C       0.038751    0.055705    0.043103
C      -1.049278   -0.807728    0.000203
N      -0.621579   -2.138131   -0.031792
C       0.739317   -2.117430   -0.021804
C       1.158159   -0.812030    0.028572
O       2.529405   -0.826192    0.034984
C       2.821121   -2.165286   -0.011229
N       1.808165   -2.981755   -0.046207
H       0.749773    1.895536   -0.388041
H      -0.865598    1.855558   -0.082601
H      -2.101198   -0.572114    0.003938
H      -1.219171   -2.943643   -0.060960
H       3.869111   -2.418648   -0.013833
