19

C      -0.152256    1.594845   -0.019057
C       0.050580    0.091015   -0.024532
C       0.757316   -0.577665   -1.227734
O       1.921886    0.161257   -1.670048
C       2.800417   -0.583549   -0.788480
C       3.280328    0.236551    0.397938
O       2.184343    0.327216    1.307737
C       1.131895   -0.546575    0.920235
C       1.626054   -1.426462   -0.262494
H       0.784691    2.107799   -0.244521
H      -0.892542    1.892501   -0.769610
H      -0.503750    1.939836    0.958559
H      -0.895588   -0.438259    0.147691
H       0.167804   -0.949574   -2.068547
H       3.607066   -1.070821   -1.344805
H       4.133524   -0.256841    0.887460
H       3.585919    1.243530    0.092246
H       0.746100   -1.038323    1.816284
H       1.673347   -2.509844   -0.195704
