21

C       0.012091    1.603632    0.010572
C       0.012283    0.072656    0.002287
C      -1.397193   -0.528626    0.012594
C      -1.401132   -2.059751    0.004334
C      -2.828159   -2.644475    0.014862
C      -2.866347   -4.098576    0.007357
C      -2.890306   -5.306901    0.001274
C      -2.882480   -6.745391   -0.006531
O      -3.873130   -7.440715   -0.001521
H       1.031087    2.002382    0.002945
H      -0.508893    2.004556   -0.865978
H      -0.491925    1.994996    0.901250
H       0.553090   -0.289861   -0.881798
H       0.569961   -0.299347    0.871831
H      -1.940020   -0.167148    0.897369
H      -1.956908   -0.157640   -0.857604
H      -0.871384   -2.431590   -0.880621
H      -0.854508   -2.441098    0.874858
H      -3.372982   -2.282021    0.897300
H      -3.389726   -2.272563   -0.853009
H      -1.866776   -7.191950   -0.017855
