13

O      -0.025983    1.450619    0.010159
C      -0.013352    0.033373    0.002289
C      -1.383487   -0.464539    0.012481
C      -2.507908   -0.896022    0.020673
C      -3.813081   -1.434494    0.030096
N      -4.908156   -0.703367    0.041110
O      -5.941472   -1.589364    0.047368
N      -5.502316   -2.884513    0.040299
C      -4.203867   -2.810443    0.029716
H       0.889415    1.748644    0.003098
H       0.497913   -0.365041   -0.889717
H       0.514619   -0.374727    0.880068
H      -3.586546   -3.694488    0.022252
