11

F      -0.113329    0.147377    0.559863
C      -0.049923    1.430366    0.176184
F       1.228956    1.731981   -0.041965
F      -0.717027    1.555842   -0.978501
C      -0.677328    2.338650    1.228446
O      -0.000667    2.205422    2.463956
C      -0.482659    1.286110    3.342237
O       0.056109    1.057992    4.377586
H      -0.579411    3.376247    0.905131
H      -1.740334    2.085065    1.309806
H      -1.415810    0.807704    2.991185
