19

C       0.483403    1.435322    0.028876
O       1.048595    0.199593   -0.417310
C      -0.294337    0.185851    0.072521
C      -0.542576   -0.562798    1.329755
C       0.545164   -0.935410    2.296908
C      -0.255317   -2.027936    1.634030
C      -1.696645   -2.201618    2.188215
C      -2.046264   -1.257178    3.305672
C      -1.987965   -0.740438    1.893278
H       0.901663    1.829245    0.953609
H       0.293813    2.168961   -0.753523
H      -1.044754    0.037603   -0.707572
H       1.537943   -0.817745    1.873446
H       0.490657   -0.723333    3.358762
H       0.212454   -2.755962    0.983736
H      -2.306161   -3.065092    1.955774
H      -3.057275   -1.378815    3.684177
H      -1.338042   -0.961150    4.071262
H      -2.852235   -0.310678    1.402363
