23

C      -0.448202    1.589804    0.114508
C       0.035733    0.137900    0.011881
C      -1.192610   -0.787104   -0.102672
C       0.991291   -0.082526   -1.193223
C       1.780900   -1.361755   -0.855902
C       1.978837   -1.284342    0.656738
O       3.033228   -0.362193    1.025529
C       2.096291    0.538259    1.648668
C       0.889866   -0.324469    1.220193
H       0.384375    2.296806    0.174202
H      -1.044187    1.859528   -0.764383
H      -1.080040    1.737479    0.997708
H      -1.769709   -0.556800   -1.004851
H      -0.912470   -1.844282   -0.147335
H      -1.856828   -0.660359    0.759373
H       0.451826   -0.147171   -2.143094
H       1.683028    0.763573   -1.272570
H       1.207438   -2.260715   -1.109282
H       2.741088   -1.427980   -1.375464
H       2.120927   -2.257753    1.139231
H       2.249781    0.596673    2.734198
H       2.163128    1.550195    1.231922
H       0.275372   -0.684731    2.047474
