15

O       0.002609    1.360037    0.028784
C      -0.088808   -0.020062    0.039072
C      -1.377962   -0.788716    0.068287
O      -1.714494   -1.768290    0.960592
C      -2.432610   -0.104168   -0.792660
N      -1.445759    0.083085   -1.913098
C      -0.463285   -0.782396   -1.218476
C       0.329636   -1.759675   -1.870286
N       0.962817   -2.575382   -2.396678
H      -0.381514    1.642787   -0.816924
H       0.711438   -0.486664    0.610785
H      -1.177371   -1.679089    1.755289
H      -3.235379   -0.799434   -1.051540
H      -2.854574    0.829434   -0.408193
H      -1.769583   -0.335762   -2.777943
