21

C       0.046436    1.492192    0.020311
C      -0.085013   -0.017132   -0.004376
C      -0.873190   -0.713453    1.049884
N       0.591121   -0.709116    1.108772
C       1.292552   -1.958809    0.749705
C       2.176952   -1.738969   -0.468051
N       1.811694   -2.498493   -1.682177
C       1.520370   -1.054087   -1.611484
C       0.063151   -0.664817   -1.386551
H       0.987079    1.811395   -0.443948
H      -0.775826    1.965271   -0.529131
H       0.038529    1.862098    1.048379
H      -1.377823   -0.149241    1.831358
H      -1.367571   -1.645977    0.778240
H       1.887051   -2.266628    1.615624
H       0.595876   -2.776631    0.522033
H       3.230539   -1.546756   -0.286672
H       2.641451   -2.653942   -2.249723
H       2.123776   -0.387795   -2.221998
H      -0.546901   -1.568330   -1.463897
H      -0.283946    0.024795   -2.161568
