17

C       0.016068    1.551805    0.077589
C       0.020422    0.024929   -0.053934
C      -1.402475   -0.567515   -0.005471
C       0.724544   -0.407948   -1.297389
N       1.194690    0.331217   -2.240040
N       1.724820   -0.580981   -3.130879
C       1.578044   -1.876671   -2.725761
O       1.905674   -2.914553   -3.222841
O       0.908725   -1.744894   -1.502809
H       1.030764    1.956727    0.070899
H      -0.532013    2.012541   -0.749072
H      -0.468258    1.839942    1.014577
H       0.585642   -0.403702    0.785471
H      -2.020423   -0.155065   -0.809660
H      -1.383699   -1.654984   -0.109831
H      -1.876285   -0.320758    0.948818
H       2.172610   -0.273590   -3.975639
