16

O      -1.038313   -0.068469   -0.052500
C       0.277028   -0.515466   -0.270415
C       1.075860    0.588390   -0.963055
O       0.568678    1.644339   -1.253360
C       0.953638   -0.861518    1.026660
C       2.054722   -1.636551    1.326676
C       2.279610   -1.524333    2.726768
C       1.310962   -0.687480    3.233676
N       0.524409   -0.278848    2.189875
H      -1.088118    0.794360   -0.497691
H       0.297748   -1.395700   -0.935886
H       2.142604    0.366174   -1.156805
H       2.628485   -2.221576    0.623534
H       3.057966   -2.009086    3.295530
H       1.108351   -0.364864    4.242125
H      -0.321770    0.263505    2.238278
