18

C      -0.041972    1.549546   -0.052166
C       0.015918    0.040040    0.035557
O      -1.150901   -0.599450   -0.401698
C       1.323977   -0.688985   -0.209841
O       2.448111    0.080648   -0.531982
C       0.708642   -0.658142    1.189698
C       1.375461    0.126878    2.297883
O       0.066706   -1.825360    1.622451
H       0.913318    2.014217    0.193193
H      -0.291238    1.846172   -1.078349
H      -0.819334    1.943515    0.609501
H      -1.235369   -0.428438   -1.346673
H       1.223396   -1.640485   -0.733739
H       3.221601   -0.331417   -0.132449
H       1.947033    0.974338    1.915957
H       0.634109    0.492356    3.014840
H       2.072588   -0.521910    2.844479
H       0.743906   -2.422823    1.959508
