20

C       0.194209    1.195086   -0.201030
O      -0.026452   -0.064750    0.394394
C      -1.318427   -0.559577    0.186075
C      -1.672659   -1.179253   -1.200261
C      -2.376413   -2.333328   -0.434297
C      -2.214885   -3.753618   -0.987176
C      -2.811696   -4.765058   -0.115317
N      -3.291471   -5.546343    0.588237
C      -1.580344   -1.930883    0.837720
H       1.215482    1.495839    0.043587
H       0.089267    1.157988   -1.295789
H      -0.503264    1.954204    0.186388
H      -2.070932    0.187126    0.485004
H      -2.267151   -0.595535   -1.906320
H      -0.758855   -1.526926   -1.693725
H      -3.441123   -2.118620   -0.305532
H      -2.678508   -3.831938   -1.978054
H      -1.151480   -3.988190   -1.115750
H      -0.639063   -2.484221    0.911917
H      -2.090511   -1.959669    1.801509
