20

C      -0.372554    1.396248   -0.139661
C      -0.058523   -0.100206   -0.060528
C       0.970272   -0.531961   -1.090076
C       1.165553   -2.046459   -1.336227
C       0.717387   -1.718323   -2.754519
C       1.284207   -2.155686   -4.064869
C      -0.163730   -2.465673   -3.697394
O       0.500623   -0.338852   -2.455074
H       0.518952    1.999939    0.063810
H      -0.732361    1.655601   -1.139319
H      -1.141015    1.679576    0.585605
H       0.322831   -0.360358    0.936265
H      -0.973932   -0.684930   -0.214476
H       1.911640    0.014857   -0.939429
H       2.186149   -2.419818   -1.233234
H       0.483567   -2.686750   -0.770669
H       1.452786   -1.385655   -4.810122
H       2.004031   -2.968134   -4.077416
H      -0.434041   -3.489644   -3.458827
H      -0.936761   -1.897412   -4.203818
