16

C      -0.266542    1.398162   -0.571948
C      -0.020675   -0.006391   -0.056726
C       0.983420   -0.872525   -0.752360
N       1.258008   -0.345537    0.589864
C      -1.175956   -0.664476    0.591846
C      -1.281111   -1.491569    1.669888
N      -2.611047   -1.806687    1.799498
N      -3.299586   -1.248812    0.912659
O      -2.392724   -0.478851    0.084374
H       0.629616    1.783502   -1.067311
H      -1.090211    1.412145   -1.290777
H      -0.526884    2.075163    0.248264
H       0.831104   -1.946310   -0.799931
H       1.499117   -0.441631   -1.606743
H       1.888138    0.451113    0.539509
H      -0.523460   -1.860734    2.336936
