17

C       0.472961    1.143974    0.253827
N      -0.010342   -0.164791   -0.145994
C       0.375082   -0.666998   -1.232037
N      -0.072825   -1.884319   -1.749116
C       0.878312   -2.361642   -2.750444
C       1.402338   -0.990501   -3.246313
O       1.274982   -0.127609   -2.118149
C       1.927615   -3.231270   -2.212024
C       2.772215   -3.955411   -1.757192
H       1.152232    1.614419   -0.466989
H      -0.379811    1.814756    0.413281
H       0.993682    1.062870    1.215603
H      -0.401143   -2.537488   -1.053086
H       0.355853   -2.882786   -3.559606
H       2.447315   -1.018215   -3.556347
H       0.777914   -0.619122   -4.066812
H       3.520836   -4.592045   -1.353597
