17

C      -0.105322    1.451411    0.023339
C       0.016420   -0.032650    0.000572
C       0.033220   -0.912490   -1.021563
C       0.059668   -2.248986   -0.319711
O       0.957033   -2.010115    0.801417
C       0.039366   -0.949353    1.220730
C       0.208475   -0.444155    2.621877
C      -1.085921   -1.977827    0.742867
O      -2.133180   -2.398492    1.096202
H       0.743617    1.916351    0.538954
H      -0.154978    1.860275   -0.989177
H      -1.009452    1.767311    0.558785
H      -0.055538   -0.736579   -2.083916
H       0.221022   -3.182401   -0.852063
H       1.180696    0.042958    2.746560
H      -0.573307    0.284249    2.856732
H       0.137473   -1.266438    3.337764
