12

O      -0.044080   -0.066200    0.004326
C       0.024465    1.140458    0.009280
N      -1.149554    1.934278    0.028457
C      -1.160194    3.284119    0.035260
N      -0.090472    4.023856    0.025044
C       1.094496    3.350222    0.006381
C       1.219304    1.982905   -0.001976
C       2.497875    1.356871   -0.021575
N       3.548779    0.871920   -0.037543
H      -2.016607    1.410830    0.037120
H      -2.139572    3.755577    0.050287
H       1.986988    3.968866   -0.002105
