16

C      -0.015752    1.510199    0.081565
C      -0.008086    0.003797    0.038324
O      -0.010024   -0.677241    1.043437
C       0.002560   -0.678448   -1.297797
C       0.010955   -2.009481   -1.448194
C       0.020246   -2.349499   -2.900709
O       0.016394   -1.086724   -3.570001
C       0.005911   -0.068400   -2.645987
N       0.000250    1.162417   -2.941286
H       0.855776    1.910327   -0.445308
H      -0.882165    1.902454   -0.459311
H      -0.025209    1.836253    1.121987
H       0.011047   -2.733563   -0.644916
H       0.911577   -2.917852   -3.199461
H      -0.861450   -2.928003   -3.208428
H       0.004612    1.289073   -3.954102
