18

C       0.289564    1.578327   -0.094066
C       0.091012    0.073906    0.018051
C       0.928398   -0.868105   -0.899664
C       1.255102   -1.785195    0.329322
C       0.600075   -0.697448    1.268569
C       2.010348   -0.323661    1.814344
C       2.611813   -1.449887    0.946065
O       3.710227   -1.915089    0.844156
H       1.345549    1.858336   -0.019501
H      -0.075514    1.946015   -1.059463
H      -0.255621    2.112016    0.692436
H      -0.972376   -0.154171   -0.112597
H       0.369698   -1.365644   -1.694433
H       1.810614   -0.402409   -1.348953
H       0.955153   -2.831120    0.262599
H      -0.135020   -0.949407    2.032719
H       2.386988    0.684096    1.619107
H       2.138914   -0.527576    2.882333
