22

C       0.358242    0.888467   -1.243796
C      -0.000430    0.057654    0.003150
C       0.407217    0.771808    1.307146
C      -1.463554   -0.367136    0.031808
C      -1.779090   -1.843868    0.027218
C      -1.514215   -2.505969   -1.326999
O      -1.738876   -3.897668   -1.167334
N      -2.490846    0.394464    0.075705
O      -2.170094    1.765442    0.082596
H       1.433226    1.097526   -1.253271
H       0.114486    0.348127   -2.164254
H      -0.181607    1.835959   -1.254384
H       0.582511   -0.870102   -0.049234
H      -0.136115    1.710436    1.425578
H       0.202116    0.145484    2.181188
H       1.480615    0.987969    1.293426
H      -1.163114   -2.354446    0.778515
H      -2.827683   -1.992987    0.293932
H      -2.188906   -2.070299   -2.079848
H      -0.481505   -2.306125   -1.655271
H      -1.616296   -4.322065   -2.021424
H      -3.041500    2.171491    0.131449
