23

C       0.063466    1.552921   -0.135888
C       0.014613    0.041994    0.001248
C      -1.262548   -0.578127   -0.536751
C       1.292390   -0.746769   -0.154535
C       0.640028   -0.629298    1.209087
C       1.300876    0.134836    2.328607
O       0.350192    0.828679    3.156459
C       2.161512   -0.761440    3.225683
O       2.695671   -0.028531    4.305550
H       1.019199    1.970045    0.189741
H      -0.082835    1.843951   -1.182473
H      -0.723831    2.027629    0.459379
H      -1.385589   -0.359196   -1.603983
H      -1.262779   -1.666361   -0.418381
H      -2.142836   -0.183474   -0.015396
H       1.260341   -1.707171   -0.658313
H       2.213418   -0.194257   -0.314773
H       0.122271   -1.525220    1.553148
H       1.941219    0.929640    1.933276
H      -0.358733    0.208980    3.364671
H       1.545825   -1.610614    3.577993
H       2.998469   -1.179627    2.656239
H       1.975721    0.547960    4.595108
