18

C      -0.085845    1.466290    0.010345
C       0.043905   -0.039809   -0.000435
C       1.415570   -0.691010   -0.149271
C       0.689997   -0.741604    1.152248
O       1.148343   -0.048303    2.317400
C       0.460480   -0.989230    3.174879
C       0.134741   -1.901157    1.964377
O      -1.212280   -2.196176    1.690239
H       0.719490    1.920785    0.594194
H      -0.049225    1.875726   -1.004813
H      -1.034232    1.774049    0.463558
H      -0.784932   -0.580311   -0.449910
H       1.510436   -1.602706   -0.731253
H       2.275536   -0.029627   -0.196306
H       1.121299   -1.388848    3.951300
H      -0.439799   -0.555788    3.627574
H       0.760998   -2.801625    1.924035
H      -1.438679   -3.025556    2.121327
