19

C       0.023752    1.591275   -0.047439
C       0.065120    0.085907   -0.040982
O       1.369468   -0.531894   -0.063399
C       0.578136   -0.685404    1.092239
C       1.002577   -0.274919    2.498382
O       0.536145   -1.542844    3.017837
C       0.159427   -2.025108    1.695246
C      -1.309984   -2.412240    1.686235
O      -1.564091   -3.403125    2.661180
H       0.754437    2.007254    0.651282
H       0.247674    1.977714   -1.046756
H      -0.972994    1.946702    0.235243
H      -0.653245   -0.404976   -0.700135
H       2.084433   -0.148450    2.624525
H       0.477594    0.576086    2.948636
H       0.789275   -2.871262    1.392900
H      -1.924554   -1.512431    1.852684
H      -1.586696   -2.835433    0.714150
H      -1.203668   -3.059676    3.488127
