21

C       0.303191    1.114978    0.350550
O       0.078543   -0.220962   -0.032483
C       0.430514   -0.505257   -1.376418
C       1.942807   -0.715815   -1.565719
O       2.167408   -2.083491   -1.239185
C       1.083131   -2.825398   -1.760390
C      -0.139150   -1.891104   -1.730782
O       1.295521   -3.208743   -3.097219
C       2.370296   -4.116094   -3.258608
H       1.367523    1.393248    0.320527
H      -0.252003    1.819360   -0.289588
H      -0.050546    1.219013    1.379172
H       0.047768    0.288136   -2.034871
H       2.231423   -0.506317   -2.605824
H       2.555668   -0.105599   -0.898600
H       0.993899   -3.718596   -1.126777
H      -0.860958   -2.186389   -0.968242
H      -0.626392   -1.901327   -2.706461
H       3.317683   -3.683272   -2.917174
H       2.191612   -5.049327   -2.702417
H       2.438075   -4.346718   -4.324110
