21

C      -1.768594    0.773237   -0.607022
C      -1.388678   -0.536510   -1.314248
C      -2.234696   -0.746424   -2.579080
C       0.095125   -0.555722   -1.642595
C       1.131979   -0.901370   -0.599802
C       0.913432   -1.822278   -1.778021
C       0.341475   -3.210573   -1.583990
H      -1.187541    0.911347    0.310071
H      -1.576286    1.636461   -1.255569
H      -2.831433    0.787857   -0.342811
H      -1.602809   -1.360839   -0.621802
H      -2.052900    0.054950   -3.305349
H      -1.994483   -1.696243   -3.066325
H      -3.304948   -0.744957   -2.346266
H       0.379693    0.240293   -2.329890
H       2.044357   -0.317272   -0.543195
H       0.767952   -1.243167    0.365598
H       1.683590   -1.779275   -2.544715
H       1.132563   -3.918543   -1.312117
H      -0.405887   -3.238770   -0.785949
H      -0.134435   -3.583183   -2.498272
