21

C       0.090128    1.621863   -0.060373
C       0.045719    0.096877   -0.059476
C       0.791616   -0.583298   -1.242456
C       1.263390   -1.912467   -0.680514
O       2.408171   -1.783761    0.187281
C       1.102524   -1.944667    0.783481
C       0.899556   -3.168792    1.628642
C       0.599051   -0.562349    1.241722
O       1.638515    0.163501    1.870924
H       1.116826    1.980301    0.051028
H      -0.317230    2.024019   -0.993887
H      -0.492537    2.036008    0.768659
H      -1.002223   -0.225696   -0.127383
H       0.137288   -0.719186   -2.108956
H       1.654835    0.003832   -1.576878
H       1.262701   -2.815297   -1.287483
H       1.351393   -4.045607    1.157678
H       1.357983   -3.030738    2.613632
H      -0.168142   -3.361301    1.778815
H      -0.195898   -0.655195    1.988812
H       2.439614   -0.055532    1.374416
