13

N       0.165649    1.409104    0.016580
C       0.047359    0.005585    0.068722
C      -0.483650   -0.682148    1.261030
C      -1.367938   -0.748933   -0.001057
C      -2.518089    0.105493   -0.042055
N      -3.396540    0.858513   -0.062238
C      -1.433201   -1.984450   -0.725472
N      -1.431314   -2.981877   -1.312148
H       0.130761    1.764123   -0.932519
H      -0.536098    1.890750    0.567181
H       0.800371   -0.521268   -0.508055
H      -0.036346   -1.618636    1.572033
H      -0.878628   -0.076935    2.070165
