23

C      -0.025511    1.514833   -0.042390
C       0.050327   -0.000470    0.050130
C      -1.164287   -0.665575   -0.584514
C       1.334317   -0.777633   -0.142675
C       2.560680   -0.034645    0.391548
C       1.879033    0.052432    1.793393
C       0.659754   -0.710868    1.244093
C      -0.019132   -1.766053    2.062658
O       0.962368   -2.714454    2.480139
H       0.840693    2.017933    0.390419
H      -0.100693    1.829927   -1.089863
H      -0.916708    1.888261    0.476115
H      -1.284079   -0.315151   -1.616126
H      -1.074709   -1.754441   -0.619155
H      -2.087039   -0.419199   -0.045716
H       1.367730   -1.612690   -0.834235
H       3.454595   -0.661511    0.411145
H       2.812731    0.909002   -0.103148
H       2.406183   -0.545490    2.538057
H       1.696068    1.049448    2.207120
H      -0.492116   -1.291888    2.939998
H      -0.818880   -2.258705    1.493096
H       0.553167   -3.298879    3.125161
