20

C      -0.174901    1.505608    0.056632
N      -0.024394    0.056727    0.034516
C      -1.321737   -0.577726   -0.188359
C      -1.307150   -2.062517    0.017037
C      -0.289751   -2.698817    0.586162
C       0.926098   -1.970671    1.081054
C       0.673387   -0.451612    1.211587
C       2.046466    0.193983    1.321426
O       2.579796    0.501904    2.354371
H       0.800407    1.995632    0.130750
H      -0.643282    1.837381   -0.875374
H      -0.799413    1.861491    0.897469
H      -2.104646   -0.136225    0.464654
H      -1.636325   -0.350196   -1.216534
H      -2.188331   -2.601466   -0.318854
H      -0.307164   -3.778540    0.707164
H       1.241744   -2.354888    2.057707
H       1.768298   -2.148362    0.395558
H       0.129550   -0.253445    2.152988
H       2.558056    0.304032    0.336593
