21

C       0.391200    1.552995   -0.229695
C       0.072655    0.089753    0.044157
C       0.554942   -0.989609   -0.978046
C       1.166969   -1.818822    0.181296
C       2.665057   -1.525906    0.464361
C       2.270259   -0.494684    1.559150
C       2.872714    0.888306    1.529479
O       2.787454    1.684997    2.429929
C       0.750183   -0.703437    1.205451
H       1.442029    1.701134   -0.499540
H      -0.209557    1.922582   -1.068304
H       0.179073    2.183331    0.639899
H      -1.009753   -0.004173    0.184985
H      -0.251741   -1.483455   -1.525308
H       1.289959   -0.635288   -1.708732
H       0.844386   -2.855574    0.279017
H       3.244572   -2.372080    0.840195
H       3.205377   -1.099448   -0.388655
H       2.438273   -0.883052    2.567799
H       3.433598    1.139966    0.597372
H       0.118206   -0.883351    2.075601
