20

C      -0.148192    1.504305   -0.014452
N       0.216777    0.087741    0.062459
C       0.830798   -0.472131   -1.133484
C       2.203876    0.097402   -1.505589
C       0.722961   -2.027533   -1.229874
C       0.095146   -2.810215   -0.101551
O      -0.200603   -1.885119   -2.373463
C      -0.159412   -0.524514   -2.314529
O      -0.734821    0.254964   -3.007981
H       0.702312    2.193133   -0.139901
H      -0.828753    1.655342   -0.855043
H      -0.672563    1.778660    0.905205
H       0.837452   -0.062086    0.852696
H       2.914644   -0.065243   -0.686880
H       2.607094   -0.378183   -2.405281
H       2.140066    1.171674   -1.697110
H       1.643707   -2.498350   -1.587096
H      -0.797280   -2.304518    0.269761
H      -0.170060   -3.813780   -0.446742
H       0.806089   -2.915702    0.725426
