21

C      -0.445304    1.437671    0.130480
C       0.204178    0.068434   -0.108004
C       0.924249   -0.475305    1.110486
C       2.147016    0.280231    1.603845
C       2.832329   -0.467611    2.750769
O       3.119579   -1.805340    2.378983
C       1.953238   -2.592015    2.224423
C       0.844057   -1.908533    1.444557
O       0.059748   -0.941900    2.163149
H       0.298910    2.212668    0.338008
H      -1.012981    1.754076   -0.749352
H      -1.133158    1.391649    0.980133
H      -0.567353   -0.652369   -0.399927
H       0.915022    0.128272   -0.942136
H       2.850695    0.392452    0.770087
H       1.864186    1.286901    1.933398
H       3.792276   -0.003984    2.993484
H       2.196934   -0.442410    3.648361
H       2.267928   -3.498352    1.697013
H       1.553435   -2.892668    3.207572
H       0.251446   -2.563676    0.804664
