16

N       0.534980    0.948925   -0.986317
C       0.185598   -0.201331   -0.260760
C      -1.019266   -0.880085   -0.277334
N      -0.913878   -1.868528    0.653265
N       0.261163   -1.873398    1.291738
C       0.949277   -0.874497    0.732565
C       2.337415   -0.614109    1.169434
C       3.469772   -0.554504    0.227224
O       2.922284    0.643864    0.784345
H       1.472830    1.253678   -0.758946
H       0.415416    0.856146   -1.986078
H      -1.916716   -0.728578   -0.854950
H      -1.611526   -2.544775    0.910411
H       2.554906   -0.917997    2.192221
H       4.471454   -0.809700    0.569148
H       3.283991   -0.701549   -0.835266
