13

C       0.055628    1.331207    0.007353
O       0.005368   -0.091363    0.002971
C      -1.221246   -0.623550    0.010532
C      -2.468703   -0.073861    0.022121
O      -3.391547   -1.063286    0.025741
N      -2.776368   -2.283441    0.016643
C      -1.479947   -2.030616    0.007499
C      -0.519927   -3.079428   -0.003656
N       0.288636   -3.905639   -0.012850
H       1.111088    1.601789    0.000032
H      -0.437062    1.740959   -0.883244
H      -0.423085    1.734954    0.908256
H      -2.849123    0.932744    0.028655
