17

C       0.135572    1.520254    0.068720
C       0.130871   -0.007650   -0.003683
C       0.548986   -0.529450   -1.382662
O       1.888733   -0.168832   -1.736931
C       2.697789   -1.279063   -1.464958
O       1.871584   -2.438283   -1.571298
C       0.569993   -2.044572   -1.455974
N      -0.437674   -2.799013   -1.410942
H       1.126819    1.916629   -0.168453
H      -0.576698    1.950546   -0.643895
H      -0.141380    1.866056    1.068688
H       0.801470   -0.426468    0.757354
H      -0.866598   -0.409544    0.204870
H      -0.112921   -0.120703   -2.152436
H       3.497085   -1.339105   -2.209182
H       3.123961   -1.245496   -0.449765
H      -0.165158   -3.781790   -1.455769
