20

C      -0.603103    1.258338    0.092578
N       0.021172   -0.062923    0.084568
C       1.435181   -0.140105   -0.260147
C       0.977362   -0.423733    1.131141
C       1.383494    0.472692    2.250016
C       0.559008    1.068773    3.432364
C       1.972817    1.685820    3.438237
C       2.586268    0.285525    3.219957
O       1.888445    1.848788    1.966235
H       0.051821    2.063940    0.447555
H      -0.927991    1.487018   -0.927473
H      -1.494921    1.226491    0.727373
H       1.725840   -0.951554   -0.922581
H       1.978968    0.792692   -0.399565
H       0.892878   -1.460879    1.455779
H      -0.247293    1.744547    3.147335
H       0.286276    0.398949    4.251601
H       2.358649    2.530306    4.007898
H       2.490411   -0.451224    4.021577
H       3.565312    0.275260    2.739791
