21

C      -0.104611    1.253344   -0.015838
O       0.266606   -0.103520   -0.107093
C       0.779930   -0.644015    1.097146
C      -0.276313   -1.041766    2.175498
C      -0.010159   -2.563425    2.208501
C       0.058364   -2.910501    0.696443
C       1.352906   -2.035258    0.782369
O       2.375122   -2.076626   -0.155886
C       1.548717   -2.623396    2.199475
H       0.744284    1.885920    0.286916
H      -0.444210    1.566371   -1.006231
H      -0.922498    1.408984    0.702852
H       1.557813    0.026980    1.491800
H      -0.102741   -0.557801    3.140926
H      -1.290715   -0.801253    1.842898
H      -0.595440   -3.160627    2.905560
H       0.300744   -3.958735    0.511053
H      -0.751959   -2.573338    0.046362
H       2.119534   -1.467805   -0.860584
H       2.101248   -2.030860    2.935496
H       1.932593   -3.644921    2.165949
