16

O       0.018479   -0.062943    0.394517
C      -0.026219    1.127498    0.171889
C      -1.331650    1.852527   -0.080358
C      -1.553284    3.128735    0.743124
C      -0.717494    4.295335    0.303580
C       0.544728    4.277146   -0.133099
C       1.523360    3.168537   -0.176774
O       2.696166    3.405537   -0.396987
N       1.164414    1.844993    0.103958
H      -1.385871    2.100484   -1.147828
H      -2.113296    1.120640    0.129613
H      -2.608979    3.407553    0.666917
H      -1.379981    2.925285    1.809490
H      -1.207597    5.265845    0.341496
H       1.019361    5.206199   -0.430697
H       1.979450    1.244476    0.164496
