18

C       1.043705    0.387222    0.061618
C      -0.232030   -0.397473    0.177877
C      -0.844326   -0.600117    1.543229
O      -0.015926   -1.365744    2.414058
C      -0.048092   -2.755664    2.179946
C       0.894275   -3.226849    1.076531
O       0.817581   -4.307444    0.555685
N      -0.874027   -0.932083   -0.791544
O      -0.268525   -0.691307   -2.026658
H       1.605060    0.331319    0.997075
H       1.656507    0.018006   -0.762445
H       0.824662    1.442872   -0.140940
H      -0.965646    0.367226    2.043702
H      -1.830987   -1.066210    1.429541
H       0.289002   -3.233578    3.109727
H      -1.060877   -3.124198    1.965588
H       1.698567   -2.499145    0.824227
H      -0.827901   -1.191606   -2.630895
