23

C      -0.063551    1.575530    0.248199
C       0.108739    0.067802    0.023459
C       0.816070   -0.388198   -1.293121
C       2.261455    0.142562   -1.339104
C       0.752546   -1.929142   -1.348996
C       1.500561   -2.595207   -2.509188
O       1.312788   -4.002653   -2.513245
C       0.033602    0.213257   -2.457431
O      -0.809689   -0.362601   -3.098275
H       0.892749    2.106714    0.257533
H      -0.697601    2.038932   -0.514004
H      -0.541344    1.752103    1.216652
H       0.684068   -0.355961    0.856000
H      -0.876733   -0.411693    0.055038
H       2.836607   -0.248156   -0.493419
H       2.775540   -0.152050   -2.258510
H       2.292003    1.234987   -1.287485
H       1.135228   -2.341117   -0.408015
H      -0.303182   -2.216794   -1.419828
H       1.192806   -2.150335   -3.466404
H       2.580932   -2.450545   -2.410818
H       0.379804   -4.169050   -2.682500
H       0.283412    1.275546   -2.684445
