14

C      -0.183219    1.369246   -0.279901
C       1.233044    1.075279    0.157637
C       0.217967   -0.032258    0.089635
N      -0.279741   -0.643126    1.290491
C      -0.553869   -0.151606    2.512439
N      -0.995291   -1.126235    3.280185
N      -0.986171   -2.235822    2.500323
N      -0.561195   -1.965669    1.310230
H      -0.825440    1.905636    0.409780
H      -0.379425    1.574632   -1.325797
H       2.023988    1.075705   -0.583299
H       1.540346    1.414666    1.140594
H       0.302466   -0.780635   -0.686711
H      -0.428340    0.878101    2.802418
