16

O       0.292660    0.115675    0.196554
C       0.598601    1.255761    0.374500
O       0.666975    2.147356   -0.637205
C       1.010488    3.479388   -0.341305
C       1.861737    4.054000    0.758605
C       3.226287    3.356572    1.013424
N       3.316353    2.136765    0.174233
C       3.594604    3.472944   -0.407434
C       2.260334    4.191658   -0.739729
H       0.826009    1.704476    1.355594
H       0.142952    4.115864   -0.513452
H       1.475117    4.815752    1.424866
H       3.819335    3.482323    1.908993
H       4.218047    1.701972    0.368986
H       4.544756    3.702302   -0.869963
H       2.227379    5.076743   -1.362834
