19

C       0.063942    1.538492   -0.257365
C       0.053389    0.048781   -0.038649
O       1.334524   -0.610603    0.016680
C       0.542543   -0.584833    1.188856
C       0.985876    0.066270    2.510678
C       0.262130   -1.094533    3.221924
O      -0.078656   -1.292259    4.351618
C       0.038194   -1.859012    1.900540
C      -1.346814   -2.427949    1.622422
H       0.816253    2.021938    0.370915
H       0.291098    1.770299   -1.302960
H      -0.916994    1.967118   -0.024551
H      -0.687647   -0.501445   -0.621518
H       2.071087    0.040559    2.657565
H       0.621643    1.070610    2.742547
H       0.803750   -2.642825    1.812210
H      -2.113265   -1.648605    1.677195
H      -1.394538   -2.885951    0.629730
H      -1.595166   -3.193761    2.362956
