20

C       0.062424    1.531498    0.040359
N      -0.002037    0.090194    0.111661
C      -1.272673   -0.545614    0.512412
C      -0.454475   -1.612956    1.280094
C       0.716226   -0.598385    1.197430
C      -0.975921   -2.050586    2.650076
O      -2.205312   -2.712599    2.528247
C       0.034838   -2.939341    3.346488
O      -0.245094   -4.056856    3.709064
H       1.085584    1.847735   -0.189670
H      -0.587787    1.891961   -0.763778
H      -0.247541    2.028653    0.980198
H      -1.874097    0.074126    1.199593
H      -1.909451   -0.876793   -0.313058
H      -0.274657   -2.495419    0.660872
H       1.712771   -0.969471    0.934729
H       0.797920    0.008543    2.118096
H      -1.086326   -1.147724    3.280229
H      -2.075964   -3.583122    2.937328
H       1.046438   -2.512898    3.502458
