17

O       0.178845   -1.157973    1.620776
C       0.051257   -0.547399    0.342045
C      -1.407083   -0.583697   -0.049194
C      -2.328435    0.166594    0.909426
C      -2.079231    1.610150    0.914375
N      -1.862493    2.745417    0.907343
C      -1.749803   -0.602157   -1.516402
C      -1.943766   -1.843719   -0.680627
H       1.038103   -0.923964    1.983179
H       0.401911    0.495365    0.365773
H       0.645300   -1.081037   -0.415974
H      -3.377374   -0.002491    0.645188
H      -2.178931   -0.215156    1.924853
H      -2.629447   -0.055323   -1.838340
H      -0.934178   -0.584198   -2.231239
H      -1.254800   -2.669921   -0.815913
H      -2.957209   -2.146901   -0.440580
