14

C      -0.028797    1.543851    0.190922
N       1.308303    1.950683   -0.335272
C       2.183827    0.749963   -0.523988
C       1.226198   -0.393907   -0.367547
C      -0.001397    0.057545    0.022779
N      -0.727167   -1.063794    0.189902
N       0.025656   -2.164061   -0.103447
N       1.219746   -1.748083   -0.432469
H      -0.134694    1.830414    1.246841
H      -0.830428    2.048888   -0.359338
H       1.171538    2.387840   -1.237107
H       2.679201    0.789909   -1.499366
H       2.973561    0.728984    0.238283
H      -1.688193   -1.195512    0.460359
