17

O       0.007940    1.426738    0.093734
C      -0.012792    0.034818   -0.029164
C      -1.318843   -0.734383    0.009445
C      -2.006212   -0.778233   -1.402432
C      -1.577341    0.188177   -2.445844
C      -0.235722    0.208412   -2.519364
C       0.329782   -0.657616   -1.431918
C      -0.828873   -1.661993   -1.057999
O      -0.781878   -3.033032   -1.014932
H      -0.552966    1.778361   -0.608601
H       0.672328   -0.358628    0.724827
H      -1.921632   -0.947431    0.883725
H      -3.004983   -1.198328   -1.381644
H      -2.266232    0.768649   -3.047612
H       0.363230    0.837840   -3.165505
H       1.349041   -1.022563   -1.546801
H      -0.781695   -3.365699   -1.920252
