21

C      -0.087372    1.558600    0.692161
C      -0.100730    0.186325    0.008651
C       1.046350   -0.706094    0.517187
C      -1.423689   -0.513143    0.157056
C      -2.526509   -0.153540    0.893045
N      -3.465944   -1.144439    0.689169
C      -4.796530   -1.207307    1.255439
C      -2.890891   -2.047548   -0.153231
N      -1.670823   -1.705699   -0.493863
H       0.872047    2.059799    0.531698
H      -0.877263    2.209621    0.303779
H      -0.230875    1.460597    1.774683
H       0.061064    0.339095   -1.067616
H       2.018635   -0.243781    0.315318
H       0.963096   -0.864578    1.598530
H       1.014972   -1.682823    0.028882
H      -2.735626    0.692619    1.526092
H      -5.395317   -0.343579    0.949241
H      -5.290173   -2.114485    0.901347
H      -4.757297   -1.237274    2.348993
H      -3.419361   -2.931906   -0.480505
