14

O       0.544722   -0.264554   -0.222176
C       0.239975    0.882923   -0.019678
C       1.191485    2.041344    0.057609
C       0.861047    3.290220   -0.821718
C       1.241686    4.200647    0.374487
C       1.075186    2.972825    1.306905
H      -0.829304    1.173670    0.131656
H       2.210852    1.681924   -0.098567
H       1.417536    3.395492   -1.754925
H      -0.209577    3.342063   -1.046424
H       2.283178    4.528560    0.318597
H       0.613377    5.072849    0.567755
H       0.070863    2.926434    1.741193
H       1.805710    2.820174    2.103569
