15

O      -0.389484    1.315998   -0.023508
C      -0.049850   -0.001397    0.020911
C       0.015751   -0.972141   -0.948086
N      -0.202164   -0.806958   -2.308434
C      -0.035323   -1.774319   -3.265771
N      -0.304735   -1.535446   -4.490555
N       0.340473   -2.182582   -0.390848
C       0.459812   -1.958531    0.901472
N       0.234293   -0.656147    1.210859
H       0.389479    1.847268   -0.230945
H      -0.571586    0.077657   -2.624136
H       0.338481   -2.711386   -2.846331
H      -0.116943   -2.362093   -5.052989
H       0.702229   -2.700613    1.646416
H       0.216924   -0.233664    2.123853
