17

C      -0.285047    1.508643   -0.104560
C       0.023045    0.033364    0.015795
O       1.132073   -0.433642   -0.821402
C       1.681452   -1.155919    0.269541
C       2.175094   -0.222496    1.367514
C       2.782662    1.057088    1.148865
C       3.336143    2.114782    0.997057
C       0.691971   -0.593617    1.247177
O       0.008826   -1.222412    2.264010
H       0.579282    2.122108    0.151024
H      -0.592763    1.743436   -1.128567
H      -1.117039    1.765570    0.560764
H      -0.862371   -0.570178   -0.225070
H       2.084793   -2.146128    0.093805
H       2.611740   -0.798268    2.183187
H       3.818256    3.048884    0.847557
H      -0.088789   -0.604091    2.997114
