25

C       0.452573    1.528868   -0.172534
C       0.033132    0.064803    0.054150
C       0.424792   -0.879737   -1.114032
C       1.599770   -1.754310   -0.599491
C       2.959585   -1.382148   -1.218523
C       1.553680   -1.549940    0.906134
C       2.405665   -2.400038    1.799993
C       0.709842   -0.570106    1.258204
C       0.399366   -0.070282    2.637084
H       1.533934    1.607946   -0.329678
H      -0.047736    1.943300   -1.054351
H       0.191987    2.162003    0.682057
H      -1.057103    0.060526    0.196839
H      -0.424709   -1.516113   -1.379039
H       0.695301   -0.322416   -2.016735
H       1.417267   -2.812593   -0.835542
H       3.204332   -0.331646   -1.026603
H       3.771273   -1.994067   -0.811326
H       2.945807   -1.532648   -2.303339
H       3.473283   -2.259851    1.588751
H       2.250509   -2.185350    2.859814
H       2.196942   -3.466180    1.639908
H       0.915019   -0.635465    3.416864
H       0.680269    0.983948    2.754495
H      -0.678474   -0.126688    2.839385
