21

C      -0.207786    1.510207    0.360120
C       0.254256    0.096477   -0.017180
C       0.793701   -0.653384    1.184436
C      -0.077006   -1.480859    2.067002
C       0.983653   -2.175114    1.209515
C       0.559611   -3.072610    0.067215
O       0.262169   -4.388681    0.515633
C       2.197708   -2.636665    1.944130
O       2.629723   -2.114933    2.945863
H       0.617212    2.094450    0.781105
H      -0.585902    2.046596   -0.515293
H      -1.006049    1.476623    1.108571
H      -0.583373   -0.449614   -0.464288
H       1.030466    0.160347   -0.790127
H       1.597176   -0.139625    1.707714
H       0.106030   -1.466848    3.135577
H      -1.111849   -1.626907    1.768646
H      -0.286770   -2.635297   -0.479367
H       1.379466   -3.193310   -0.650423
H      -0.419090   -4.316144    1.192981
H       2.704602   -3.516180    1.492817
