16

O       0.019493    0.071445    0.475476
C      -0.020716    1.189672    0.046756
O      -1.199835    1.726646   -0.333297
C      -1.292466    2.958015   -1.078584
C      -0.110993    3.888545   -0.853433
N       1.162876    3.190058   -1.008783
C       1.245716    2.080432   -0.050020
C       1.552584    2.575930    1.294642
C       1.777033    2.983314    2.401875
H      -1.370580    2.688471   -2.140508
H      -2.239189    3.415239   -0.775630
H      -0.163767    4.722185   -1.560707
H      -0.140042    4.309701    0.157321
H       1.237846    2.813648   -1.949991
H       2.047635    1.405730   -0.366186
H       1.989043    3.335779    3.381243
