17

C      -0.037082    1.533142   -0.010197
C       0.033901    0.001498    0.076760
C      -1.324598   -0.617613   -0.006347
O      -2.268951   -0.236134    1.049181
C      -2.915757   -1.487213    0.818322
C      -3.056906   -1.699889   -0.691554
C      -1.783176   -2.126142    0.125416
C      -2.224334   -0.603978   -1.276884
O      -2.114447   -0.104084   -2.360720
H       0.962002    1.968637    0.076532
H      -0.468058    1.843948   -0.965431
H      -0.658262    1.936896    0.793791
H       0.638524   -0.397635   -0.746354
H       0.512769   -0.309073    1.012391
H      -3.637922   -1.853326    1.536327
H      -3.800592   -2.336625   -1.148992
H      -1.277639   -3.079945    0.144466
