16

O       1.066342    1.093821    1.511754
C       0.496353    1.427767    0.485039
N       1.074846    1.478425   -0.733267
C       2.479215    1.110450   -0.946607
C       3.462667    2.107334   -0.418886
N       4.308933    2.814694   -1.139260
C       5.011519    3.571840   -0.230426
C       4.578459    3.317361    1.045903
N       3.591638    2.371682    0.912145
H      -0.571166    1.715450    0.463848
H       0.547429    1.855031   -1.504372
H       2.635713    0.132812   -0.478047
H       2.647063    1.010476   -2.019035
H       5.787329    4.252688   -0.545876
H       4.871045    3.706953    2.006725
H       2.991560    1.967088    1.619559
