16

C      -0.283821    1.437449    0.198647
N       0.214449    0.104666   -0.133387
C       0.805703   -0.658448    0.873260
C       0.600253   -1.982682    1.037825
O       1.314749   -2.723632    1.942077
C       2.228639   -2.107021    2.761549
N       2.920614   -2.735128    3.623569
C       2.346362   -0.660158    2.572647
N       1.699410    0.020410    1.697512
H       0.513911    2.002385    0.681450
H      -0.562017    1.948084   -0.726550
H      -1.155565    1.426292    0.871297
H      -0.442845   -0.432765   -0.682091
H      -0.097553   -2.590962    0.478397
H       2.701956   -3.732253    3.611244
H       3.043741   -0.153346    3.235230
