17

C       0.123298    1.420416    0.088156
N       0.076939   -0.022155    0.237926
C      -1.135329   -0.758432   -0.046937
C      -0.597037   -2.206897    0.008386
O       0.802587   -2.086209   -0.248354
C       1.191614   -0.785490   -0.074717
N       2.370771   -0.342278   -0.179395
C      -2.199136   -0.539294    1.020399
O      -3.373722   -0.431873    0.795166
H       1.136110    1.749266    0.320539
H      -0.122969    1.733832   -0.936825
H      -0.581087    1.895050    0.777461
H      -1.569426   -0.517110   -1.028743
H      -0.744176   -2.653989    0.999926
H      -1.047266   -2.852944   -0.746382
H       3.022533   -1.097424   -0.375328
H      -1.780743   -0.507640    2.052764
