21

O       0.128980    1.413389   -0.127423
C       0.114834    0.010962    0.017794
C      -1.319686   -0.520695    0.074546
O      -2.044860   -0.009275   -1.052753
C      -1.395435   -2.044131    0.170142
C      -2.826402   -2.573925    0.303448
C      -2.882078   -4.113985    0.346674
C      -4.238596   -4.631443    0.477505
C      -5.366486   -5.032409    0.586196
H      -0.587973    1.611317   -0.744570
H       0.648867   -0.487746   -0.813541
H       0.651186   -0.233157    0.941571
H      -1.819316   -0.067527    0.939411
H      -1.713265   -0.457860   -1.840487
H      -0.916623   -2.480961   -0.719961
H      -0.793059   -2.371434    1.028140
H      -3.285486   -2.174413    1.215027
H      -3.432569   -2.209396   -0.531154
H      -2.422312   -4.522587   -0.563372
H      -2.270233   -4.479742    1.182219
H      -6.358944   -5.396893    0.682596
