18

C       0.089779    1.585733    0.043795
C       0.123075    0.086889    0.032881
C       0.570514   -0.799574   -1.142693
C       1.216771   -1.807358   -0.131144
C       0.712427   -0.915577    1.005398
O       1.381438   -0.650864    2.175625
C      -0.809424   -0.780416    0.895456
C      -1.473513   -0.166874    2.007846
N      -2.013275    0.301925    2.918454
H       1.045198    1.991417   -0.304972
H      -0.698810    1.967139   -0.614560
H      -0.096355    1.971257    1.049505
H      -0.229831   -1.189456   -1.778421
H       1.313704   -0.307383   -1.773649
H       0.861104   -2.842251   -0.146441
H       2.307131   -1.803048   -0.187981
H       1.027542   -1.199715    2.884871
H      -1.387707   -1.571789    0.422095
