21

C       0.409032    1.178417    0.258352
C       0.185424   -0.299290    0.093419
C       0.625559   -1.189853   -1.119102
C      -0.112468   -2.141221   -0.127901
O      -0.435603   -3.478550   -0.282078
C       0.700755   -1.452693    1.012328
C      -1.195504   -1.035389    0.036987
C      -2.143899   -1.050820    1.230367
O      -1.935607   -0.690133   -1.123937
H       1.476040    1.422814    0.223631
H      -0.091820    1.734910   -0.540442
H       0.015500    1.535562    1.216472
H       0.142556   -0.995446   -2.073444
H       1.704094   -1.344708   -1.216138
H       0.372466   -3.974384   -0.451592
H       1.781843   -1.614409    0.983776
H       0.325084   -1.511011    2.033841
H      -1.660229   -1.267674    2.183194
H      -2.650050   -0.083940    1.308583
H      -2.914167   -1.816578    1.077374
H      -2.615455   -1.360879   -1.247631
