17

N      -0.069086    1.201499    0.659234
C      -0.057949    0.181987   -0.242906
O       0.883277   -0.033449   -0.982902
C      -1.318167   -0.679094   -0.278859
C      -1.928005   -0.739977   -1.693975
O      -2.596754   -2.006158   -1.774068
C      -2.099568   -2.870910   -0.837046
N      -2.484560   -4.061475   -0.678793
C      -1.028696   -2.170231   -0.031085
H       0.757034    1.771337    0.745746
H      -0.824378    1.341869    1.306284
H      -2.070023   -0.317960    0.430591
H      -2.665145    0.042114   -1.888319
H      -1.133682   -0.692277   -2.446344
H      -3.202774   -4.299859   -1.365062
H      -0.044307   -2.418851   -0.442804
H      -1.053606   -2.474802    1.014939
