17

N      -0.010719   -1.126440   -0.062257
C      -0.023065    0.029491   -0.028836
C      -0.035688    1.481011    0.024242
C      -0.200608    2.016556    1.469826
C       1.251057    2.353893    1.555500
C       1.406084    2.122539    0.025047
C       1.327062    3.528538   -0.572225
C       0.295282    4.214894    0.362833
N       0.245934    3.404043    1.602372
H      -0.733601    1.861767   -0.729718
H      -0.890984    1.619888    2.204645
H       1.981332    2.230354    2.344765
H       2.205664    1.482798   -0.341949
H       2.303058    4.021449   -0.512625
H       1.015190    3.525483   -1.620851
H       0.593098    5.231656    0.630029
H      -0.703581    4.271139   -0.080274
