14

O      -0.909103    1.660045    0.211273
C       0.101291    1.182678   -0.220993
C       1.442071    1.918314   -0.324367
O       2.412780    1.378060   -0.793232
O       1.371101    3.157911    0.160804
C       2.556603    3.940550    0.103359
C       2.483324    5.217219   -0.678571
C       2.492204    5.238361    0.837291
H       0.183428    0.146259   -0.605195
H       3.457841    3.342227    0.091458
H       3.367781    5.532756   -1.220026
H       1.541899    5.437323   -1.168253
H       1.557048    5.471810    1.332854
H       3.382081    5.573306    1.357613
