12

F      -0.015258    0.040856    0.003984
C      -0.026105    1.364982    0.010774
N      -1.197105    1.955859    0.029045
C      -1.176229    3.289191    0.035433
C       0.022826    4.015610    0.023378
N       1.211431    3.380560    0.004649
C       1.188319    2.056438   -0.001669
C       0.005717    5.441390    0.030740
C      -0.046248    6.643312    0.037427
H      -2.132676    3.802279    0.050521
H       2.133448    1.522037   -0.016719
H      -0.077464    7.705073    0.043119
