14

O       0.137830    1.440767    0.164274
C      -0.013280    0.044584    0.046239
C      -1.433498   -0.426371   -0.089169
C      -1.521577   -1.228836   -1.165287
N      -0.270993   -1.321173   -1.833768
C       0.645632   -0.477918   -1.250317
O       1.735033   -0.160585   -1.668225
C      -2.630506   -1.953316   -1.657915
C      -3.559095   -2.573551   -2.107222
H       1.020749    1.640368   -0.176927
H       0.470328   -0.476678    0.894093
H      -2.229605   -0.217196    0.607346
H      -0.163988   -1.689861   -2.766038
H      -4.387835   -3.116441   -2.491040
