19

O      -0.468742    0.382040   -0.915723
C      -0.278054    1.417400   -0.348604
C      -1.174992    2.137442    0.653326
C      -0.614686    3.568288    0.692088
C       0.860667    3.310849    0.316239
O       0.857947    2.149468   -0.530164
C      -1.302245    4.487288   -0.298390
C      -2.553118    5.230217    0.093067
C      -1.258828    5.981953   -0.108572
H      -2.220371    2.068840    0.349537
H      -1.073856    1.628879    1.618911
H      -0.681475    4.006630    1.692436
H       1.309828    4.133040   -0.244930
H       1.480150    3.100953    1.196421
H      -1.259350    4.138232   -1.327972
H      -3.338630    5.346579   -0.644922
H      -2.914969    5.113552    1.109785
H      -0.758173    6.367971    0.773870
H      -1.158819    6.612615   -0.984684
