22

C       0.077129    1.533049   -0.110281
C       0.009784    0.006165   -0.193359
C      -1.372990   -0.550742    0.198427
C      -1.470994   -2.046197    0.123065
C      -1.648928   -2.889959    1.142605
C      -1.756460   -4.330238    0.705108
C      -1.285027   -4.278739   -0.771373
C      -1.435169   -2.797347   -1.196660
H       1.068382    1.904723   -0.388243
H      -0.653578    1.998979   -0.781048
H      -0.137709    1.884534    0.905155
H       0.260575   -0.315689   -1.211366
H       0.768574   -0.437021    0.463094
H      -1.615925   -0.218972    1.215397
H      -2.128188   -0.100005   -0.463179
H      -1.755342   -2.584901    2.179114
H      -1.150699   -5.012173    1.313296
H      -2.793562   -4.686630    0.791487
H      -0.229692   -4.564978   -0.824005
H      -1.836614   -4.965137   -1.418984
H      -2.368809   -2.621498   -1.751995
H      -0.625259   -2.470481   -1.858615
