13

O      -0.080225   -0.041904   -0.342150
C      -0.067111    1.151481   -0.130091
N      -1.084677    2.068994   -0.038822
N      -0.664203    3.354138    0.216406
C       0.624944    3.257831    0.282399
N       1.061113    1.968337    0.083468
C       2.401153    1.429299    0.063181
C       3.131996    1.668544    1.313153
N       3.717367    1.880378    2.285515
H      -2.065049    1.867246   -0.128727
H       1.286127    4.086412    0.482123
H       2.285372    0.352132   -0.103898
H       2.982518    1.838719   -0.771001
