20

C      -0.093905    1.522251   -0.380448
C      -0.117295    0.017251   -0.091690
C      -1.504189   -0.546019    0.200618
C      -2.211533    0.086544    1.385345
O      -2.357747   -0.439371   -1.014924
C      -2.365321   -1.793016   -1.210711
O      -2.803490   -2.395763   -2.139942
C      -1.614213   -2.101342    0.098834
N      -0.419127   -2.910720    0.117902
H       0.909242    1.835508   -0.683316
H      -0.785602    1.771093   -1.190539
H      -0.370767    2.113459    0.497252
H       0.296791   -0.514564   -0.956113
H       0.531985   -0.227297    0.756597
H      -2.355971    1.159569    1.237896
H      -3.195331   -0.368144    1.532906
H      -1.622230   -0.059091    2.296608
H      -2.311010   -2.485348    0.849531
H      -0.656148   -3.886683    0.254154
H       0.082173   -2.853702   -0.762160
