21

C      -1.372008   -0.273436   -0.638782
C      -1.620467   -0.644067    0.828358
O      -2.423999   -1.811211    0.939774
C      -0.306089   -0.855141    1.582640
C       0.350305    0.444510    2.026902
O      -0.422762    1.077072    3.032620
O      -0.305223   -1.815628    2.649634
C       0.525962   -2.071174    1.503210
C       0.226378   -3.298615    0.680354
H      -0.877493   -1.093983   -1.166728
H      -2.322042   -0.063242   -1.143102
H      -0.752267    0.623745   -0.730243
H      -2.121438    0.197572    1.330533
H      -3.245015   -1.639322    0.468064
H       1.368297    0.229181    2.382171
H       0.427645    1.160260    1.202087
H      -0.542503    0.419044    3.728497
H       1.589375   -1.930114    1.714980
H      -0.841368   -3.391909    0.490962
H       0.763936   -3.249298   -0.273491
H       0.577126   -4.191396    1.209376
