19

C      -0.144348    1.480424   -0.032659
N       0.089347    0.053226    0.007536
C       0.759169   -0.526077   -1.176616
C       1.315792   -1.902811   -0.711798
C       1.503517   -1.645152    0.757652
C       2.084305   -2.133801    1.899946
N       1.717932   -1.294408    2.927079
C       0.911364   -0.262273    2.457965
C       0.767678   -0.486679    1.111448
H       0.789480    2.070836   -0.075626
H      -0.748838    1.731713   -0.910067
H      -0.703074    1.789198    0.856135
H       0.058998   -0.603670   -2.014383
H       1.597291    0.120285   -1.493647
H       0.579205   -2.696456   -0.893189
H       2.225222   -2.171662   -1.256595
H       2.718602   -2.986280    2.083279
H       2.047523   -1.371347    3.872023
H       0.540472    0.500005    3.121676
