18

O      -0.195830    1.438356   -0.299140
C      -0.004216    0.089616   -0.066101
C       0.707108   -0.865464   -1.031892
C      -0.372120   -1.950728   -0.718937
C      -1.079003   -0.976001    0.231478
C      -0.120525   -0.499397    1.295010
O       0.917249   -1.299191    1.818160
C       0.537854   -2.283967    2.662744
N       1.411675   -2.992816    3.233348
H       0.557492    1.920766    0.060773
H       0.640732   -0.505325   -2.060113
H       1.744794   -1.110371   -0.793049
H      -0.980232   -2.199037   -1.590222
H      -0.007067   -2.876042   -0.266344
H      -2.150050   -0.871732    0.358965
H      -0.560269    0.176427    2.026000
H      -0.551832   -2.370781    2.765857
H       0.960458   -3.688342    3.824157
