21

C       0.518183    1.488653   -0.417304
C       0.082644    0.088053    0.005703
C       0.514848   -1.112896   -0.899489
C       1.247947   -1.759034    0.296383
C       2.693744   -1.220291    0.518140
C       2.167419   -0.327214    1.679706
O       2.637253    0.983577    1.882457
C       0.712022   -0.635684    1.252562
O      -0.193920   -0.949127    2.277468
H       1.570705    1.521477   -0.725177
H      -0.061807    1.821412   -1.285346
H       0.369387    2.223841    0.380770
H      -1.000136    0.083959    0.159560
H      -0.331897   -1.697012   -1.267954
H       1.151595   -0.857173   -1.752610
H       1.086166   -2.815406    0.506077
H       3.452787   -1.952777    0.799419
H       3.073250   -0.648585   -0.335536
H       2.322097   -0.842452    2.633680
H       2.594341    1.453815    1.045154
H      -0.303170   -0.164123    2.826869
