20

C      -0.002171    1.046025    0.485655
O      -0.170127   -0.010575   -0.437892
C      -1.378575   -0.683945   -0.272311
C      -1.488309   -2.031600   -0.916519
C      -1.436722   -1.921294    0.585962
C      -0.320974   -2.390228    1.526643
C      -1.365714   -2.389321    2.683628
C      -2.508650   -2.249324    1.632822
H       0.969150    1.502687    0.281073
H      -0.785566    1.810757    0.368903
H      -0.020494    0.691534    1.526086
H      -2.257924   -0.034707   -0.282838
H      -2.423853   -2.299984   -1.397478
H      -0.596427   -2.400501   -1.413673
H       0.039826   -3.395507    1.286211
H       0.544095   -1.730454    1.628317
H      -1.392863   -3.275479    3.321138
H      -1.278449   -1.507033    3.322785
H      -3.268240   -1.484634    1.822137
H      -3.017189   -3.199041    1.435891
