16

O      -0.414155    0.033657   -0.196964
C      -0.090607    1.181863   -0.044231
C       1.311925    1.719714   -0.203373
C       1.360294    2.912578   -1.164053
C       2.639564    3.734543   -0.984849
O       3.320608    3.691815    0.005761
N       2.915336    4.561767   -2.082619
C       3.960075    5.476954   -2.224760
O       4.812659    5.717746   -1.418876
H      -0.842747    1.956209    0.243301
H       1.662337    2.068066    0.777268
H       1.972659    0.912013   -0.526735
H       1.258559    2.584204   -2.204884
H       0.515233    3.590425   -0.972303
H       2.284686    4.499906   -2.868932
H       3.895990    5.970747   -3.216052
