19

C      -0.253809    1.530929    0.189720
C       0.067441    0.070502   -0.031776
C      -1.125793   -0.955573   -0.023768
C      -0.463366   -1.710368    1.163450
O      -0.436689   -3.113433    1.174090
C       0.840553   -0.901135    0.965559
C       1.753668   -1.370967   -0.201997
C       1.081695   -0.317586   -1.107601
O       1.330215    0.112455   -2.197399
H       0.654288    2.121395    0.348229
H      -0.767470    1.942733   -0.685677
H      -0.905819    1.668659    1.058752
H      -2.103678   -0.512865    0.178980
H      -1.209484   -1.551776   -0.938082
H      -0.934904   -1.426394    2.108710
H      -0.101961   -3.421173    0.325506
H       1.363730   -0.544700    1.852795
H       2.819542   -1.174321   -0.055133
H       1.656845   -2.412893   -0.526432
