23

C       0.501896    1.303924    0.243791
C      -0.015979   -0.102438   -0.020325
C      -1.521081   -0.209636    0.197539
C       0.507500   -0.797302   -1.305664
C       1.116185   -1.836563   -0.344049
C       2.618411   -2.053667   -0.378774
C       3.115021   -2.866762    0.810099
O       4.522284   -3.013885    0.680493
O       0.687171   -1.075585    0.812032
H       1.585983    1.350117    0.109797
H       0.035621    2.023598   -0.438188
H       0.272185    1.608028    1.270432
H      -2.062041    0.462106   -0.478143
H      -1.868296   -1.231385    0.018307
H      -1.775895    0.060743    1.227324
H      -0.257434   -1.163548   -1.992578
H       1.245731   -0.216628   -1.863874
H       0.599344   -2.807831   -0.369713
H       2.886494   -2.572390   -1.308233
H       3.132837   -1.085896   -0.385315
H       2.846001   -2.344803    1.739591
H       2.612049   -3.848376    0.824887
H       4.848606   -3.461490    1.466316
