18

C       0.806539   -0.243235   -1.782894
C       0.231204   -1.551054   -1.282526
O       0.766908   -2.614583   -1.541952
C      -1.028086   -1.442902   -0.491528
C      -1.977719   -2.617161   -0.425818
C      -1.287437   -2.203361    0.834162
C      -0.316044   -3.059778    1.616794
N       0.447846   -3.950336    0.927198
O      -0.301857   -2.967953    2.831813
H       1.724238   -0.427750   -2.341467
H       0.079371    0.268925   -2.423358
H       1.010292    0.424452   -0.937952
H      -1.469793   -0.452207   -0.499354
H      -3.038698   -2.419270   -0.526355
H      -1.626905   -3.523258   -0.907515
H      -1.871976   -1.617894    1.534172
H       0.614206   -3.821884   -0.064027
H       1.140107   -4.439799    1.472447
