20

C       0.560054    1.467490   -0.184746
C       0.292917   -0.029681   -0.233369
O       1.117139   -0.817514   -0.661195
N      -0.934882   -0.415922    0.232540
C      -1.374320   -1.786640    0.256552
C      -1.952331   -2.364340    1.577159
C      -2.981650   -3.142325    0.732358
O      -4.269370   -3.172862    1.301496
C      -2.707167   -2.165930   -0.447604
H       1.487218    1.639400    0.367567
H       0.716815    1.829493   -1.204664
H      -0.244065    2.046640    0.277116
H      -1.569670    0.290367    0.568128
H      -0.536921   -2.376950   -0.116330
H      -1.285710   -2.919065    2.240063
H      -2.473821   -1.591642    2.152003
H      -2.622988   -4.154607    0.499865
H      -4.843602   -3.687710    0.725685
H      -3.424227   -1.339117   -0.407240
H      -2.659048   -2.558366   -1.466052
