18

C       0.073579    1.491357    0.295224
O       1.149137    2.176761   -0.335435
C       2.188737    1.389429   -0.877006
C       2.341577    0.048255   -0.161355
N       1.127832   -0.774202   -0.275260
C      -0.086261    0.043481   -0.115128
C       0.302782   -0.457764   -1.460968
C       0.817393    0.445773   -2.572727
O       2.002438    1.164503   -2.256268
H       0.206782    1.530865    1.388116
H      -0.840634    2.051445    0.063368
H       3.098077    1.993728   -0.814176
H       3.182259   -0.492929   -0.605006
H       2.556551    0.200054    0.902345
H      -0.901158   -0.458764    0.405505
H      -0.246662   -1.318948   -1.836826
H       1.059066   -0.166804   -3.447866
H       0.023748    1.146605   -2.873215
