17

O      -0.048906    0.010546   -0.360231
C      -0.023211    1.176477   -0.038874
C      -1.303459    1.915356    0.333578
O      -1.132030    3.279268    0.691679
C       0.173129    3.772937    0.659028
C       1.117970    3.461894   -0.541680
C       2.292778    3.834238    0.399739
C       1.354009    2.957450    1.268666
C       1.222974    1.999403    0.027954
H      -1.992381    1.849586   -0.518628
H      -1.773187    1.379139    1.168437
H       0.106230    4.820501    0.959659
H       0.985002    3.734973   -1.588843
H       3.259557    3.392995    0.150734
H       2.389579    4.886695    0.680379
H       1.492746    2.649837    2.305455
H       2.106405    1.420085   -0.248639
