17

N       0.313255    1.338969   -1.500610
C      -0.122427    0.359594   -0.837591
C      -1.559185   -0.085620   -0.855389
C      -2.264708    0.211584    0.456954
C      -3.290955   -0.719062    0.986266
N      -1.988153   -0.587975    1.659802
O       0.639049   -0.474874   -0.014944
C       1.592760    0.074042    0.797266
O       2.369130   -0.598774    1.396113
H       1.318876    1.477933   -1.400481
H      -2.056738    0.427491   -1.681438
H      -1.584408   -1.164522   -1.050698
H      -2.378012    1.273956    0.664690
H      -4.138829   -0.334397    1.545344
H      -3.497215   -1.621703    0.416071
H      -1.389380   -1.375025    1.421674
H       1.526620    1.173710    0.840947
