15

O      -0.065055    1.447368   -0.096160
C      -0.022021    0.051733    0.033011
C       0.176210   -0.509912    1.472636
N      -1.268308   -0.841470    1.528819
C      -1.439204   -0.561991    0.082037
C       0.907583   -0.525547   -1.026870
F       2.136635    0.020304   -0.910713
F       1.043236   -1.854816   -0.906213
F       0.468468   -0.272128   -2.262490
H       0.836425    1.783350   -0.023528
H       0.857625   -1.366176    1.518938
H       0.485775    0.241738    2.206412
H      -1.465371   -1.798180    1.795366
H      -2.233219    0.155350   -0.144118
H      -1.552315   -1.443275   -0.559489
