20

C       0.010346    1.522996   -0.416002
C       0.068244    0.038185   -0.105107
N       1.198732   -0.808530   -0.736776
C       2.114924   -0.239393    0.356588
C       0.806241   -0.571414    1.126041
O       0.512303   -0.492563    2.476560
C       0.851044   -1.887631    0.327158
C      -0.317645   -2.803155    0.008340
O      -0.035529   -3.537265   -1.173070
H       0.901210    2.084341   -0.126899
H      -0.143672    1.670953   -1.490066
H      -0.846175    1.968652    0.101578
H      -0.909601   -0.394317   -0.319751
H       2.989922   -0.862405    0.554880
H       2.401914    0.799654    0.200624
H       0.577993    0.427067    2.756908
H       1.728515   -2.512300    0.521685
H      -0.425252   -3.533667    0.817521
H      -1.276865   -2.274385   -0.071441
H       0.303388   -2.900372   -1.813954
