18

N      -0.133745    1.483574    0.535414
C      -0.092778    0.124135    0.029736
C       0.346880   -1.069791    0.956098
N      -0.994011   -1.714539    0.782527
C      -1.462588   -0.608047   -0.123094
C      -2.619933   -0.287633    0.862342
O      -3.936683   -0.550446    0.450711
C      -1.989395   -1.386538    1.745333
N      -2.118975   -1.842297    2.913763
H      -0.380520    1.500598    1.520608
H       0.782177    1.915019    0.465675
H       0.457683    0.139676   -0.914379
H       1.159046   -1.688945    0.565504
H       0.564643   -0.808008    1.996774
H      -1.774821   -0.886659   -1.132065
H      -2.533044    0.706691    1.322466
H      -4.266734    0.222300   -0.019220
H      -2.926920   -1.420158    3.372948
