21

C      -0.252376    1.624414   -0.106059
C       0.081255    0.144863    0.114923
C       0.759945   -0.488377   -1.098093
C       2.246704   -0.121362   -1.279885
C       2.976592   -1.414674   -0.780913
C       1.978535   -2.520419   -1.131299
C       0.771137   -1.980756   -1.238501
C      -0.448934   -1.874923   -2.115880
O      -0.167865   -0.449283   -2.259227
H       0.651110    2.224272   -0.258163
H      -0.885049    1.738854   -0.990256
H      -0.784907    2.038144    0.755394
H       0.737743    0.026008    0.986536
H      -0.838757   -0.407578    0.339430
H       2.448636    0.020153   -2.345686
H       2.557711    0.781818   -0.746867
H       3.934904   -1.566564   -1.288178
H       3.200845   -1.363895    0.293236
H       2.275361   -3.534118   -1.373402
H      -0.420208   -2.410404   -3.070494
H      -1.420614   -2.041275   -1.633006
