19

C      -0.552811    1.429025    0.076296
C       0.045794    0.044939    0.055851
C       0.044190   -0.655360   -1.093390
C       0.534282   -2.004753   -1.443059
O       0.571609   -2.338180   -2.614301
C       0.994418   -3.043932   -0.414170
O       0.789406   -2.769395    0.947348
C       1.476581   -1.627130    1.416602
C       0.585271   -0.391985    1.393797
H       0.209293    2.178134    0.326050
H      -0.999920    1.697486   -0.882643
H      -1.324788    1.503956    0.852548
H      -0.366384   -0.172064   -1.977396
H       0.449511   -3.965864   -0.636824
H       2.058594   -3.241741   -0.626383
H       1.779940   -1.833184    2.449324
H       2.391799   -1.455511    0.829812
H       1.133522    0.448646    1.842483
H      -0.271655   -0.567304    2.060626
