15

C       0.137200    1.173870    0.466626
N      -0.025120    0.026409   -0.436606
C      -1.217624   -0.702874   -0.251583
C      -1.290295   -2.043974    0.074949
N      -0.289753   -2.995696    0.210990
N      -2.617330   -2.287605    0.146411
N      -3.343683   -1.158644   -0.110966
N      -2.489368   -0.215300   -0.356379
H       1.080623    1.677718    0.236097
H      -0.681679    1.902726    0.399726
H       0.187114    0.813625    1.498694
H       0.051401    0.341107   -1.398500
H       0.613163   -2.535634    0.160257
H      -0.350824   -3.547046    1.058759
H      -3.096495   -3.155418    0.321831
