21

C       0.045577    1.513815   -0.062771
C       0.055749   -0.010805    0.101510
C       0.664040   -0.413867    1.450283
C      -1.370325   -0.581504   -0.085510
C      -1.433159   -2.080176   -0.129923
N      -1.072277   -2.738860   -1.232986
N      -1.229039   -4.040004   -0.921147
C      -1.681933   -4.235198    0.339393
C      -1.828042   -2.980413    0.890424
H       1.054319    1.928820    0.034345
H      -0.346636    1.808422   -1.041961
H      -0.581355    1.986785    0.703214
H       0.676380   -0.439828   -0.695871
H       0.083111    0.005205    2.281685
H       0.685781   -1.500552    1.572562
H       1.689925   -0.042510    1.544688
H      -2.012849   -0.217267    0.726033
H      -1.783859   -0.186097   -1.020037
H      -1.025033   -4.735367   -1.618219
H      -1.863883   -5.223380    0.731544
H      -2.171902   -2.741695    1.883972
