17

C       0.013314    1.504166   -0.448138
C       0.105361    0.018212   -0.169870
O       1.136211   -0.617812   -0.215098
N      -1.085065   -0.611123    0.149301
C      -1.295717   -2.036236    0.468283
C      -2.814442   -1.722887    0.570234
O      -3.361398   -1.989120    1.833811
C      -2.440138   -0.262329    0.304810
N      -3.149894    0.780090    0.307712
H       0.997712    1.860734   -0.750159
H      -0.712033    1.712000   -1.241351
H      -0.304996    2.044493    0.449947
H      -0.983614   -2.712404   -0.329174
H      -0.851310   -2.333208    1.420037
H      -3.406715   -2.163999   -0.242714
H      -4.099392   -1.380885    1.958768
H      -2.620375    1.636530    0.152134
