25

C       0.079785    1.651880    0.010519
C       0.147483    0.122990    0.039903
C       0.578479   -0.487168   -1.303127
C       0.624134   -1.990455   -1.284613
C       1.806484   -2.774819   -0.783854
C       1.351552   -2.975227   -2.206839
C       0.108905   -3.876889   -2.274251
C       0.239923   -5.352433   -1.915526
C      -0.614777   -2.905062   -1.277360
H       1.054582    2.086711   -0.238077
H      -0.637167    2.002506   -0.740519
H      -0.228192    2.058204    0.979113
H       0.846167   -0.203736    0.820330
H      -0.832951   -0.282505    0.321601
H      -0.112257   -0.148903   -2.089217
H       1.567855   -0.096327   -1.577671
H       2.726439   -2.207027   -0.677816
H       1.686996   -3.557715   -0.038052
H       2.012796   -2.762023   -3.040139
H      -0.356253   -3.788035   -3.261449
H       0.703633   -5.491695   -0.933383
H      -0.741655   -5.839086   -1.889600
H       0.855264   -5.882717   -2.651078
H      -0.890074   -3.326587   -0.303927
H      -1.502071   -2.438759   -1.714372
