15

O      -0.044905    1.451854    0.011066
C      -0.015267    0.050607    0.002604
C      -1.437175   -0.475750    0.012972
O      -2.422643    0.217404    0.026587
C      -1.558582   -2.017703    0.005370
O      -0.567945   -2.703929   -0.007633
C      -2.991945   -2.544076    0.016069
C      -3.092232   -3.991419    0.010505
C      -3.174238   -5.188997    0.005922
H       0.863026    1.768297    0.004616
H       0.486463   -0.373176   -0.883189
H       0.503071   -0.383444    0.873738
H      -3.496063   -2.105900    0.887800
H      -3.511545   -2.098314   -0.842663
H      -3.248708   -6.248230    0.001951
