14

O       0.077056    1.465115   -0.259070
C       0.021077    0.106657   -0.067315
C      -0.033932   -0.414777    1.392413
O      -1.147048   -1.282263    1.078094
C      -1.376360   -0.632301   -0.180495
C      -2.528047    0.270834   -0.175510
N      -3.444768    0.973673   -0.179419
C       1.057189   -0.610002   -0.910883
O       1.774724   -0.002304   -1.664371
H       0.718049    1.617680   -0.973744
H       0.824785   -0.973986    1.776546
H      -0.309500    0.385453    2.087810
H      -1.491955   -1.356701   -0.994927
H       1.109581   -1.710600   -0.795770
