18

O      -0.026977    1.430290    0.042419
C       0.005086    0.039522   -0.026260
C       0.465380   -0.727400   -1.278982
N      -0.515117   -1.817317   -0.935576
C      -0.098964   -2.563210    0.333669
C       1.199181   -2.037124    0.981740
C       0.418503   -0.744390    1.294612
C      -0.925914   -1.561582    1.204485
C      -1.293871   -0.814320   -0.087276
H       0.848204    1.745544    0.295897
H       0.128388   -0.231445   -2.194982
H       1.508868   -1.033331   -1.398565
H      -0.276146   -3.636686    0.256630
H       1.395565   -2.597683    1.902118
H       2.122544   -1.991395    0.396388
H       0.687602   -0.106629    2.137423
H      -1.563584   -1.817008    2.048031
H      -2.267778   -0.471737   -0.437858
