18

C      -0.318993    1.522016    0.006374
C       0.009318    0.034372    0.045806
C       1.205182   -0.612475   -0.770882
C       2.200371   -0.115302    0.324862
O       2.557668    1.240511    0.287151
C       0.942988   -0.619321    1.144505
C       1.005111   -1.782141    0.182241
N       0.906160   -3.035541    0.249205
O       1.036511   -3.624223   -1.035844
H       0.555705    2.156442    0.119901
H      -0.805607    1.763024   -0.945537
H      -1.034993    1.758191    0.802083
H      -0.917371   -0.534363   -0.081672
H       1.356688   -0.637046   -1.847061
H       3.090045   -0.745347    0.447583
H       3.113744    1.421478    1.051437
H       0.801843   -0.648257    2.223667
H       0.937545   -4.560163   -0.831791
