19

O      -0.140441    0.132203    0.357522
C      -0.096748    1.307919    0.105388
C      -1.287359    2.260810   -0.010069
C      -0.793799    3.364500   -0.957360
C       0.717530    3.519972   -0.647614
C       1.051104    4.502870    0.517117
C       1.836879    3.669508    1.497882
C       1.922450    2.391546    1.133200
C       1.190046    2.118761   -0.159768
H      -2.187513    1.733940   -0.332059
H      -1.483215    2.661904    0.993939
H      -0.926538    3.038888   -1.995288
H      -1.339668    4.305066   -0.844192
H       1.257470    3.827019   -1.545589
H       1.616747    5.375059    0.167820
H       0.140649    4.906289    0.982873
H       2.264994    4.086359    2.403276
H       2.410222    1.599812    1.689581
H       1.802891    1.566313   -0.880264
