21

C       0.041030    1.621212    0.003698
C      -0.109496    0.099348   -0.100210
C       0.724127   -0.483423   -1.238257
C       2.241765   -0.626715   -0.943688
N       2.030991   -2.067700   -0.668340
C       0.721885   -2.058866   -1.369198
C      -0.369311   -2.889358   -0.696542
C       0.841044   -2.448681   -2.786796
N       0.966155   -2.763643   -3.893112
H       1.083042    1.911479    0.175210
H      -0.293737    2.115027   -0.915003
H      -0.553102    2.017844    0.832165
H       0.185819   -0.366489    0.847262
H      -1.166143   -0.149801   -0.256638
H       0.486534    0.027710   -2.173535
H       2.866223   -0.414963   -1.820489
H       2.632975   -0.069382   -0.086154
H       2.725193   -2.704875   -1.044840
H      -0.453343   -2.610478    0.354797
H      -1.335243   -2.744268   -1.189514
H      -0.117549   -3.952707   -0.750834
