23

C       0.121502    1.545816    0.064061
C       0.014758    0.023165   -0.096560
C      -1.409241   -0.541513   -0.002686
C      -2.335437    0.054188   -1.065888
C      -1.538750   -2.080532    0.022961
C      -0.878802   -2.686857    1.223360
C      -2.231105   -2.040822    1.389030
C      -2.110960   -0.519985    1.426303
O      -1.464234    0.080345    2.528181
H       1.170309    1.859552    0.054810
H      -0.384155    2.079652   -0.746129
H      -0.319924    1.862895    1.012382
H       0.440649   -0.280167   -1.062991
H       0.646107   -0.448968    0.664478
H      -1.933299   -0.104297   -2.073594
H      -3.324074   -0.415939   -1.026528
H      -2.472542    1.130140   -0.923046
H      -1.811607   -2.679327   -0.838754
H      -0.890686   -3.771345    1.265141
H       0.023348   -2.256466    1.652570
H      -3.082991   -2.610153    1.741574
H      -3.084668   -0.027393    1.359042
H      -0.740013   -0.493371    2.798326
