25

C       0.018852    1.340074   -0.565913
C       1.188334    1.788804    0.351155
C       1.446882    0.302501    0.732020
C       1.683750   -0.026990    2.203790
C       1.500392   -1.513073    2.562092
C       0.040758   -1.925248    2.813653
C      -0.909801   -1.867046    1.608006
C      -1.071401   -0.484571    0.951094
C       0.093287   -0.092588    0.043349
H      -0.931613    1.865137   -0.432363
H       0.272596    1.365329   -1.628987
H       2.011490    2.326750   -0.125925
H       0.850210    2.380969    1.207506
H       2.279860   -0.103761    0.146529
H       2.701137    0.292088    2.464940
H       1.014845    0.574455    2.834479
H       1.936420   -2.140979    1.772375
H       2.072926   -1.733015    3.471341
H       0.028542   -2.948323    3.210470
H      -0.364440   -1.288360    3.613069
H      -0.576056   -2.584015    0.844323
H      -1.894417   -2.219275    1.939781
H      -1.984332   -0.486114    0.340773
H      -1.232214    0.278956    1.725054
H       0.211535   -0.880549   -0.708974
