21

C      -0.029507    1.502257    0.277432
C       1.505120    1.557673   -0.083134
C       1.221562    0.300173   -0.925192
C       0.014469   -0.023921   -0.067176
C      -0.795815   -0.921228   -1.028216
C       0.266416   -1.044086   -2.148751
C       0.767912    0.394064   -2.429874
C       2.145446   -0.153682   -2.867446
C       1.773450   -0.974254   -1.609852
H      -0.316475    1.784372    1.292884
H      -0.625512    2.078738   -0.435389
H       1.885856    2.446442   -0.592177
H       2.122240    1.357412    0.798184
H       0.307330   -0.573206    0.835231
H      -1.084305   -1.877402   -0.581245
H      -1.705459   -0.452883   -1.421707
H       0.065928   -1.706074   -2.994647
H       0.189316    1.198400   -2.890874
H       2.176357   -0.688230   -3.821851
H       3.001946    0.519167   -2.770478
H       2.337193   -1.784296   -1.142127
