12

O      -0.041782   -0.044549    0.003896
C       0.045994    1.146065    0.009391
O      -1.063280    1.983138    0.028567
C      -0.716123    3.389593    0.030985
C       0.773851    3.357782    0.010188
C       1.174809    2.074851   -0.001902
O       2.531403    2.036763   -0.021290
C       2.862293    3.359269   -0.019277
N       1.865992    4.198486   -0.000589
H      -1.164166    3.860082   -0.850235
H      -1.139570    3.850935    0.929040
H       3.917491    3.584526   -0.032913
