16

C       0.221662    0.952483   -0.311407
O      -0.429806   -0.001350    0.514221
C       0.434138   -0.664760    1.359884
C       0.142351   -2.045735    1.827759
O      -0.459768   -2.814825    0.756207
C       0.685332   -2.686874   -0.021312
N       1.025891   -3.250348   -1.086263
C       1.384163   -1.771128    0.934737
O       2.733284   -1.664576    1.128811
H       0.971323    0.476815   -0.956982
H      -0.550234    1.412205   -0.931302
H       0.714364    1.732288    0.287352
H       0.907846   -0.046404    2.129966
H      -0.012169   -2.398921    2.838011
H       0.294120   -3.872951   -1.432404
H       3.124445   -2.540851    1.025838
