17

C      -0.309359    1.553622    0.022704
C       0.026273    0.066205   -0.055832
O       0.751257   -0.264264   -1.257815
C       2.036032   -0.722053   -0.868952
C       2.812655    0.375504   -0.110610
N       2.324692   -0.144528    1.217735
C       1.883216   -1.408255    0.511189
C       0.877816   -0.498596    1.074005
H       0.583593    2.172519    0.133219
H      -0.838605    1.865931   -0.881785
H      -0.961787    1.741908    0.882176
H      -0.918041   -0.497834   -0.080231
H       2.500507   -1.233996   -1.710859
H       3.896583    0.234392   -0.141796
H       2.569578    1.414952   -0.347571
H       2.144326   -2.406869    0.838116
H       0.407222   -0.702601    2.029495
