18

C      -0.316419    1.502441   -0.080081
C       0.273877    0.090273    0.087031
C       0.891115   -0.420057   -1.132294
C       1.395044   -0.836613   -2.144611
C       1.990347   -1.298137   -3.377644
C       1.966684   -0.316325   -4.531295
C       3.021224   -2.356336   -3.327778
O       1.693745   -2.664387   -3.738759
H       0.460133    2.217020   -0.366007
H      -1.086409    1.512165   -0.856128
H      -0.766873    1.839715    0.858006
H       1.014996    0.094951    0.896746
H      -0.515528   -0.602431    0.405833
H       2.506517    0.598482   -4.268630
H       2.428736   -0.762925   -5.415167
H       0.935872   -0.043724   -4.775673
H       3.779155   -2.392236   -4.110405
H       3.322125   -2.763210   -2.364055
