18

C      -0.144722    1.421956   -0.111428
C       0.009048   -0.071641    0.045440
C      -1.251049   -0.933015    0.363426
C      -0.500526   -1.608079    1.554973
C       0.767760   -0.813200    1.191672
O       1.609113   -1.510685    0.237954
C       1.040901   -0.790357   -0.871962
C       0.534355   -1.659374   -1.936569
N       0.112649   -2.329128   -2.779072
H       0.826651    1.926401   -0.154132
H      -0.690427    1.662573   -1.031464
H      -0.708668    1.846279    0.725468
H      -2.103636   -0.323496    0.671080
H      -1.577062   -1.597171   -0.439824
H      -0.911202   -1.345083    2.533179
H      -0.371491   -2.690613    1.502014
H       1.357865   -0.333732    1.976505
H       1.774798   -0.099675   -1.309789
