16

N       0.019662    1.417187    0.089927
C       0.022669   -0.004619    0.041108
C       0.691690   -0.956376    1.122054
C      -0.031027   -1.894916    0.133573
N      -0.466032   -3.223525   -0.366834
C      -1.125720   -2.804146   -1.379625
N      -1.137836   -1.310308   -1.557273
C      -1.210479   -0.925802   -0.063666
C       0.311007   -1.037526   -1.096359
H       0.959340    1.788247   -0.013739
H      -0.541485    1.796850   -0.667238
H       1.784748   -0.987956    1.135671
H       0.286855   -0.883545    2.134321
H      -1.652948   -3.436417   -2.084702
H      -2.150073   -0.894809    0.490538
H       1.166100   -1.140826   -1.767188
