20

O      -0.067320    1.401572    0.214944
C      -0.028075    0.021132    0.095527
C      -0.830519   -0.778568   -0.938096
C      -1.129772   -1.848021    0.162222
C      -0.342354   -1.012200    1.180411
C       1.074736   -0.800286    0.698951
N       1.778846   -1.811175   -0.040658
C       3.173935   -1.531521   -0.367102
C       2.824680   -2.536509    0.674813
H       0.615610    1.774235   -0.353882
H      -1.729943   -0.238198   -1.241223
H      -0.286249   -1.116271   -1.823848
H      -2.192689   -1.915058    0.402284
H      -0.736352   -2.848476   -0.028712
H      -0.603542   -0.866988    2.221930
H       1.670300   -0.216625    1.409237
H       3.504362   -1.847562   -1.352658
H       3.598041   -0.588228   -0.025435
H       3.012618   -2.265186    1.712352
H       2.894348   -3.599565    0.462292
