16

O       0.189242    1.343505   -0.011325
C       0.007355   -0.048778    0.119060
C      -1.421970   -0.490334    0.119267
C      -2.520816    0.281374    0.073335
C      -3.751866   -0.551718    0.054321
O      -4.900436   -0.179997    0.093683
C      -3.272015   -1.997848    0.018660
N      -2.462430   -2.292603   -1.201904
C      -1.798439   -1.946959    0.084530
H      -0.160676    1.606174   -0.869434
H       0.549227   -0.613348   -0.659950
H       0.475233   -0.329372    1.072639
H      -2.546280    1.362041    0.039156
H      -3.875798   -2.779937    0.462177
H      -2.444299   -3.306836   -1.318122
H      -1.200879   -2.694136    0.595180
