19

C       0.039614    1.617735    0.047104
C       1.569275    1.787875    0.038607
O       1.960986    0.837973    1.078594
C       1.557985   -0.156480    0.098915
C       2.091224    0.770075   -1.017402
C       1.527593    0.645119   -2.437869
C       0.248324   -0.155583   -2.487983
C      -0.444809   -0.450010   -1.387964
C       0.020406    0.048226   -0.043428
H      -0.380558    1.994916    0.982093
H      -0.468859    2.095663   -0.793583
H       1.991676    2.785760    0.162168
H       1.928572   -1.162981    0.290449
H       3.182404    0.781669   -1.004459
H       1.372765    1.642369   -2.877381
H       2.274983    0.165533   -3.083167
H      -0.087289   -0.492829   -3.465013
H      -1.356723   -1.036981   -1.445365
H      -0.531168   -0.408533    0.779094
