16

O       0.288654    1.145031   -0.083570
C      -0.078447   -0.204232    0.010531
C       0.138663   -0.860431    1.392226
C      -0.753104   -0.003868    2.311287
N      -1.971550   -0.544448    1.607527
C      -1.177219   -1.683314    1.127654
C      -1.546942   -0.598800    0.152850
C      -2.591092   -0.546967   -0.877630
O      -2.377955   -0.134614   -1.995724
H      -0.022365    1.473748   -0.934256
H       0.375681   -0.813591   -0.781990
H       1.116381   -1.233562    1.686733
H      -0.778963   -0.360745    3.342930
H      -0.633897    1.080859    2.271551
H      -1.470626   -2.723390    1.175316
H      -3.593335   -0.901730   -0.559561
