19

O       0.103301    1.064763   -0.837227
C      -0.005712    0.140175    0.237804
C      -1.323409   -0.485589    0.340052
C      -2.432676   -0.949667    0.421888
C      -3.756974   -1.553367    0.500239
C      -3.871546   -2.871662   -0.296319
C      -5.259223   -3.455075   -0.205170
C      -5.502569   -4.897195   -0.085720
O      -5.620138   -4.040069    1.051182
H      -0.637559    1.675394   -0.764466
H       0.760960   -0.620433    0.052054
H       0.247878    0.614971    1.199440
H      -4.016308   -1.752883    1.547141
H      -4.505943   -0.838736    0.132685
H      -3.619794   -2.687720   -1.347190
H      -3.145237   -3.592829    0.091358
H      -6.052634   -2.845749   -0.644305
H      -6.436430   -5.323011   -0.450128
H      -4.656246   -5.582915   -0.068255
