17

N       0.338574   -1.292849   -0.276309
C       0.160429   -0.158005   -0.147179
C      -0.061630    1.273442    0.011140
C      -0.250815    1.772777    1.473252
O       0.767410    2.771273    1.303313
C       1.220002    2.166119    0.077177
C      -1.076282    1.766559   -1.014210
C      -2.514437    1.911930   -0.687562
N      -1.669614    3.099630   -0.901402
H      -1.222248    2.207548    1.729732
H       0.018524    1.021523    2.224664
H       2.151285    1.603924    0.210418
H       1.327733    2.894306   -0.731679
H      -0.801361    1.496582   -2.031915
H      -3.262074    1.735250   -1.454594
H      -2.839497    1.670805    0.321303
H      -1.418178    3.537646   -0.017856
