23

C      -0.159892    1.534527    0.006261
C       0.091048    0.021908    0.011825
C       0.789710   -0.499434   -1.234761
C      -0.028555   -0.452804   -2.576981
C       0.366049   -1.906821   -2.826592
C       1.850823   -2.116945   -2.570749
C       2.780603   -0.904274   -2.598418
C       2.219461    0.019163   -1.483381
C       0.900080   -2.047560   -1.411903
H       0.777686    2.098615   -0.021251
H      -0.752837    1.834561   -0.864619
H      -0.706597    1.844196    0.902268
H       0.690135   -0.246476    0.893234
H      -0.866942   -0.502366    0.124877
H      -1.101239   -0.358276   -2.383366
H       0.262410    0.298846   -3.320730
H      -0.200228   -2.625741   -3.408133
H       2.233095   -3.087276   -2.869496
H       3.815442   -1.196790   -2.395459
H       2.778007   -0.411668   -3.577152
H       2.238312    1.076205   -1.767458
H       2.812142   -0.085805   -0.565898
H       0.736263   -2.811371   -0.662275
