23

C       0.189452    1.494869   -0.385294
C       0.166489    0.001048   -0.151761
C       1.456383   -0.769435    0.027686
C       0.519385   -0.582812    1.187789
C       0.807380    0.180431    2.494582
C       0.070679   -0.941639    3.248106
C       0.467525   -1.549592    4.560257
C      -0.833356   -0.787410    4.434518
C      -0.236672   -1.692612    1.940304
H       0.997977    1.970904    0.179144
H       0.344888    1.728014   -1.444578
H      -0.751178    1.964949   -0.075702
H      -0.620232   -0.525792   -0.688867
H       1.538857   -1.758524   -0.413003
H       2.385031   -0.204711    0.030541
H       1.867964    0.287429    2.746085
H       0.333578    1.165715    2.566540
H       0.419971   -2.629818    4.658804
H       1.279272   -1.086983    5.113430
H      -0.900625    0.189655    4.903395
H      -1.760427   -1.352511    4.448631
H      -1.301750   -1.769769    1.694486
H       0.210518   -2.689805    1.864571
