12

N       0.148136    0.772289    1.145199
C       0.029781    0.071932    0.113617
O       1.073427   -0.034970   -0.813522
N       1.229885   -1.006523   -1.781574
C       0.625073   -2.137997   -1.715774
C      -0.352592   -2.672933   -0.755646
N      -1.220366   -2.012417   -0.096443
C      -1.271564   -0.619620   -0.259734
O      -2.251932   -0.024727   -0.609019
H       1.090650    1.157467    1.237050
H       0.942991   -2.813368   -2.508251
H      -0.338430   -3.757875   -0.634962
