16

N       0.180038    1.374294    0.162732
C       0.061602   -0.026132    0.080946
C      -1.084289   -0.785313   -0.013913
N      -0.702038   -2.104061   -0.160505
C       0.658004   -2.197881   -0.145860
C       1.170121   -0.926021   -0.007252
C       2.622614   -0.537174    0.002667
C       3.007709    0.181551    1.224223
N       3.269494    0.775448    2.181169
H       0.832196    1.663307    0.884543
H      -0.710052    1.823757    0.336926
H      -2.123661   -0.501242    0.007751
H      -1.333844   -2.878577   -0.252310
H       1.159877   -3.147782   -0.239222
H       3.258288   -1.423460   -0.093258
H       2.861444    0.117718   -0.846133
