15

C      -0.222957    1.510160   -0.264919
C       0.081421    0.037959    0.020437
C       0.623935   -0.695946   -1.205255
C       0.934711   -2.151051   -0.957289
O       0.785296   -2.726828    0.096231
C       1.485097   -2.962061   -2.141088
O       1.676304   -2.500935   -3.235189
H       0.675642    2.048322   -0.586556
H      -0.971743    1.616405   -1.057754
H      -0.609643    2.011943    0.627014
H       0.806413   -0.046836    0.837425
H      -0.821237   -0.473491    0.372443
H      -0.075715   -0.647137   -2.051828
H       1.538903   -0.223812   -1.590642
H       1.687440   -4.021783   -1.876179
