22

C      -0.283913    1.563463    0.206803
C      -0.092930    0.050722    0.143688
C       0.440177   -0.444625   -1.222210
C       1.685679   -0.996851   -0.570506
C       1.194859   -0.544401    0.824056
C       2.134891    0.424329    1.515846
O       1.525851    0.842842    2.731264
N       0.752424   -1.854514   -1.264261
C      -0.046123   -2.872373   -0.600201
H       0.562105    2.099745   -0.236606
H      -1.178464    1.852939   -0.355093
H      -0.394440    1.902058    1.239703
H      -1.019293   -0.436506    0.467000
H       0.321604    0.085762   -2.163093
H       2.718923   -0.981639   -0.906712
H       0.995365   -1.363315    1.524313
H       3.089947   -0.091707    1.710011
H       2.360345    1.282804    0.865382
H       2.111600    1.474262    3.159416
H      -0.440430   -2.595005    0.387323
H      -0.894538   -3.124293   -1.244132
H       0.564832   -3.772556   -0.479770
