21

C       0.335497    1.543515   -0.282226
C       0.184522    0.034163   -0.146145
O       0.983692   -0.585643   -1.134260
C       0.612994   -0.459804    1.243616
N       0.628519   -1.927642    1.298718
C       1.585616   -2.455713    2.268084
C      -0.709475   -2.474154    1.508429
C      -0.768166   -3.913226    1.226299
N      -0.820687   -5.047630    1.015847
H       1.376012    1.839265   -0.114617
H       0.051602    1.857785   -1.289709
H      -0.301434    2.068680    0.436553
H      -0.879894   -0.219870   -0.306487
H       1.102070   -1.498133   -0.833397
H       1.637877   -0.118482    1.418667
H      -0.021649   -0.017848    2.032377
H       1.348258   -2.162543    3.306089
H       1.599911   -3.547696    2.215047
H       2.585876   -2.089677    2.025252
H      -1.076109   -2.311375    2.539758
H      -1.415174   -1.972878    0.839239
