10

O      -0.049174   -0.034510   -0.001565
C       0.016587    1.169252    0.007800
C       1.261051    1.954757   -0.000306
N       2.487949    1.406645   -0.018090
N       3.279246    2.454990   -0.018808
N       2.705082    3.656811   -0.003940
C       1.408902    3.357482    0.008363
H      -0.898231    1.802462    0.021009
H       4.283391    2.355653   -0.030540
H       0.659057    4.132685    0.022366
