17

C      -0.068452    1.571739    0.460410
C      -0.066018    0.098727    0.034430
C       0.983115   -0.713477    0.816364
C      -1.425831   -0.527924    0.162700
C      -2.584068   -0.057597    0.739146
N      -3.474507   -1.063729    0.561532
N      -2.920494   -2.103318   -0.085660
N      -1.683847   -1.780456   -0.326141
H       0.921054    2.014467    0.313485
H      -0.789305    2.158227   -0.118291
H      -0.319872    1.675147    1.522549
H       0.207396    0.048918   -1.027851
H       0.777993   -0.678499    1.892195
H       0.971098   -1.760071    0.503201
H       1.986955   -0.309915    0.648246
H      -2.841056    0.863357    1.233137
H      -4.442016   -1.112540    0.837555
