19

C       0.116746    1.363660    0.100570
O      -0.159650    0.001562   -0.129833
C       0.564720   -0.553113   -1.210857
C       2.050974   -0.904241   -0.864319
C       2.003221   -2.420071   -0.997644
C       1.100255   -2.804640   -2.206380
O       0.632642   -4.015071   -1.519197
C       0.629360   -2.955396   -0.496746
C       0.015681   -1.938818   -1.502573
H       1.169281    1.537489    0.371059
H      -0.115833    1.978957   -0.782995
H      -0.514553    1.686927    0.931791
H       0.495242    0.115884   -2.082847
H       2.769221   -0.446822   -1.552087
H       2.297728   -0.578616    0.150731
H       2.889034   -3.024313   -0.806108
H       1.347324   -2.881270   -3.266138
H       0.303585   -3.215731    0.509649
H      -1.026063   -2.052463   -1.796304
