18

C      -0.017354    1.487863   -0.146047
O       1.235037    1.612619    0.556839
C       1.460633    0.189432    0.496082
C       0.023945   -0.056835   -0.013735
C      -0.973950   -0.712991    0.946151
C      -2.038231   -1.259138   -0.014579
C      -1.169372   -1.688595   -1.200073
O      -0.076041   -0.767881   -1.235543
H      -0.831799    2.022206    0.358605
H       0.055505    1.820132   -1.189551
H       2.225814   -0.082672   -0.242173
H       1.723407   -0.230532    1.474640
H      -0.484200   -1.537286    1.478376
H      -1.360454   -0.016699    1.693302
H      -2.625979   -2.079829    0.403054
H      -2.729361   -0.464338   -0.315575
H      -0.788228   -2.711359   -1.061332
H      -1.688841   -1.647874   -2.162571
