17

C      -0.100254    1.486144    0.077998
C      -0.076744    0.030907    0.075512
C      -0.057770   -1.174449    0.073961
C      -0.011692   -2.603694    0.057444
C      -0.439999   -3.484376    1.245039
O      -1.223858   -2.921820    2.254623
C      -2.397617   -2.394970    1.648331
O      -2.502692   -2.940933    0.339226
C      -1.264585   -3.496680    0.009995
H       0.751003    1.894698   -0.477999
H      -1.013820    1.873209   -0.387261
H      -0.050431    1.886108    1.097030
H       0.821629   -3.035551   -0.494691
H       0.197348   -4.284862    1.599433
H      -3.273982   -2.692819    2.236416
H      -2.322682   -1.303049    1.587395
H      -1.340132   -4.307796   -0.703425
