18

C      -0.044113    1.547240    0.014900
C       0.075490    0.024793    0.006068
C       0.914014   -0.549505   -1.171532
C       1.544651   -1.781263   -0.582539
C       1.445085   -1.803257    0.755442
C       0.727305   -0.580407    1.279575
C       1.998592   -2.857411    1.605984
O       1.937991   -2.861641    2.816537
H       0.942520    2.017561    0.099046
H      -0.513012    1.916978   -0.903307
H      -0.649856    1.892392    0.859172
H      -0.930914   -0.403666   -0.079082
H       0.313230   -0.757241   -2.064119
H       1.697619    0.155709   -1.490047
H       2.049388   -2.538258   -1.175231
H       1.448105    0.114281    1.733100
H       0.001789   -0.821552    2.061627
H       2.494242   -3.686740    1.051957
