19

C      -1.598852   -0.623949   -0.694549
C      -0.188478   -0.318231   -0.172947
C       0.917184   -0.660893   -1.159171
C       2.238079   -1.225759   -0.621829
C       1.297683   -2.120985   -1.352880
C       1.113428    0.198988   -2.370699
O       1.846093   -0.115121   -3.290645
C       0.421627    1.480453   -2.403730
C      -0.124609    2.551855   -2.463538
H      -1.828193   -0.038221   -1.589326
H      -1.701494   -1.683300   -0.951267
H      -2.352887   -0.385669    0.061909
H      -0.116949    0.739617    0.104208
H      -0.013683   -0.887670    0.747121
H       3.139784   -0.917107   -1.137555
H       2.321794   -1.312869    0.455906
H       0.722947   -2.845745   -0.786778
H       1.568768   -2.415988   -2.359465
H      -0.603715    3.498799   -2.526821
