15

C       0.128723    1.436650   -0.027964
C      -0.045204   -0.034973    0.031682
C      -1.102088   -0.870779    0.224827
N      -0.664180   -2.181285    0.179526
C       0.614310   -2.087684   -0.034890
O       1.061576   -0.816253   -0.135854
C       1.601371   -3.196181   -0.175657
N       1.018485   -4.417731   -0.053425
O       2.783290   -3.000481   -0.376020
H       0.820729    1.786870    0.745375
H       0.531209    1.750520   -0.997026
H      -0.834465    1.928965    0.121789
H      -2.137187   -0.617716    0.391541
H       0.029027   -4.495796    0.113073
H       1.594127   -5.238228   -0.131318
