14

C      -0.041040    1.552023    0.036686
C       0.007437    0.024309    0.005826
O      -1.361576   -0.502753    0.085518
C      -1.840692   -0.700849    1.311813
O      -1.287103   -0.489881    2.357037
C      -3.204565   -1.239711    1.230954
N      -4.279936   -1.660222    1.226820
C       0.592742   -0.507981   -1.214631
C       1.107286   -0.918069   -2.218500
H       0.972874    1.949007   -0.055899
H      -0.642528    1.929413   -0.793159
H      -0.465800    1.891456    0.983965
H       0.544712   -0.349246    0.882170
H       1.560548   -1.290669   -3.104406
