17

C       0.032291    1.529832    0.012332
C      -0.034950    0.036286   -0.034627
C      -0.850859   -0.829080    0.833221
N       0.632328   -0.867949    1.025005
C       1.147645   -1.695116   -0.062743
N       1.907380   -2.692805   -0.073189
C       0.558953   -0.822824   -1.142456
C       0.159593   -1.070397   -2.529335
O       1.318875   -0.289966   -2.205050
H       1.002348    1.883967   -0.346785
H      -0.744214    1.970321   -0.623070
H      -0.118898    1.889309    1.033613
H      -1.360185   -0.372074    1.676524
H      -1.344681   -1.709866    0.429214
H       2.156509   -2.964982    0.881571
H       0.365740   -2.041384   -2.975121
H      -0.674545   -0.514043   -2.954328
