18

C      -0.346753    1.573162    0.212653
C       0.001154    0.105169    0.038016
N       1.331597   -0.177786   -0.553550
C       1.085676   -0.565771    0.839136
C       1.877296    0.131141    1.896755
C       1.679028   -0.178985    3.318836
O       2.808190   -0.690026    2.611389
C      -1.100044   -0.735389   -0.365813
C      -2.023297   -1.419964   -0.721582
H       0.544662    2.156279    0.449220
H      -0.776422    1.968260   -0.712405
H      -1.081622    1.704107    1.012491
H       1.279971   -0.988554   -1.164853
H       0.927611   -1.620414    1.054587
H       2.266399    1.110208    1.623603
H       1.896252    0.577788    4.071236
H       0.933796   -0.919441    3.607715
H      -2.836751   -2.028837   -1.030407
