12

N       0.010073   -1.175705   -0.004296
C      -0.018862   -0.020980    0.002102
C      -0.026676    1.439320    0.009913
C       1.415200    2.014672   -0.000497
C       1.417039    3.466866    0.007206
C       1.395505    4.674205    0.013883
C       1.377782    6.039771    0.021368
N       1.360977    7.201022    0.027865
H      -0.578626    1.800484   -0.863292
H      -0.562200    1.791146    0.897050
H       1.964216    1.640246    0.870961
H       1.947798    1.649599   -0.885999
