14

N      -0.030837    1.008114    1.029314
C       0.036312    0.111300    0.114295
C      -1.259837   -0.458315   -0.297152
C      -1.561275   -1.394648   -1.205136
C      -0.680958   -2.164628   -2.095029
O      -1.114441   -2.989202   -2.873247
N       0.705229   -1.954936   -2.059201
C       1.512863   -1.121864   -1.319986
N       1.281163   -0.255818   -0.414785
H       0.919122    1.329523    1.234009
H      -2.078620   -0.011260    0.258344
H      -2.599964   -1.670224   -1.351902
H       1.178888   -2.553263   -2.724315
H       2.559104   -1.264619   -1.597496
