19

C       0.227635    1.612794   -0.119815
C       0.045056    0.118117    0.082055
C       0.803899   -0.882322   -0.829911
N       1.258257   -1.693562    0.347732
C       2.662748   -1.373127    0.758079
C       2.195404   -0.206431    1.665964
C       0.739103   -0.603532    1.279826
C      -0.122978   -0.987996    2.386361
N      -0.815524   -1.264115    3.270565
H       1.283636    1.896370   -0.174389
H      -0.243590    1.926593   -1.057177
H      -0.236217    2.183127    0.691666
H      -1.021687   -0.119327    0.106010
H       0.188216   -1.457167   -1.526303
H       1.633896   -0.432937   -1.389295
H       3.114324   -2.207675    1.301191
H       3.315664   -1.108549   -0.079361
H       2.423003   -0.315923    2.726788
H       2.488060    0.795646    1.348038
