25

C      -0.058233    1.577087    0.153224
C       0.130017    0.056772    0.092127
C       0.718138   -0.468336   -1.237196
C       2.185746   -0.031587   -1.374881
C       0.532108   -2.007382   -1.362084
C      -0.948760   -2.400962   -1.508325
C       1.331872   -2.616892   -2.536126
C       1.266207   -4.126394   -2.555212
O       0.977894   -4.802982   -3.508564
H       0.888259    2.119598    0.071624
H      -0.710987    1.925235   -0.655146
H      -0.520055    1.871765    1.100805
H       0.782117   -0.266871    0.915396
H      -0.841889   -0.410142    0.277436
H       0.150937   -0.006998   -2.060079
H       2.583137   -0.215854   -2.376164
H       2.296254    1.038762   -1.182792
H       2.823489   -0.560566   -0.655365
H       0.920273   -2.458259   -0.435149
H      -1.373858   -1.965571   -2.420247
H      -1.066447   -3.486806   -1.583345
H      -1.556387   -2.069113   -0.663885
H       0.984228   -2.237951   -3.503245
H       2.395069   -2.364223   -2.435871
H       1.530283   -4.601050   -1.578695
