18

C      -0.286610    1.628849    0.210038
C      -0.085352    0.127272    0.137147
C      -1.363663   -0.628041   -0.235910
O      -1.737457   -0.339876   -1.567215
O       0.935227   -0.228507   -0.854487
C       1.761156   -0.860587    0.145226
C       0.751476   -0.528615    1.266219
O       1.167099    0.388587    2.248923
H       0.664685    2.141423    0.359205
H      -0.746043    1.973408   -0.719955
H      -0.948868    1.884445    1.042848
H      -1.202640   -1.709565   -0.093107
H      -2.194810   -0.324551    0.410374
H      -0.941035   -0.490851   -2.093245
H       1.926729   -1.924171   -0.065574
H       2.726080   -0.352683    0.261990
H       0.269779   -1.405709    1.717855
H       1.659210   -0.088748    2.923765
