17

F      -0.375759   -0.067441    0.464464
C      -0.101414    1.225651    0.210870
F       1.239186    1.348168    0.205381
F      -0.534130    1.490400   -1.032043
C      -0.727965    2.172109    1.237547
C      -2.234493    1.923988    1.410311
C      -2.320520    0.860756    2.531835
C      -0.948055    0.912483    3.252074
N      -0.212827    2.001309    2.584302
H      -0.514396    3.181226    0.865680
H      -2.701397    2.859679    1.725928
H      -2.713835    1.610208    0.480928
H      -3.147119    1.070265    3.213893
H      -2.488893   -0.132018    2.110962
H      -1.047614    1.140754    4.318796
H      -0.440292   -0.057712    3.170093
H       0.792632    1.884641    2.608725
