20

C       0.045000    1.549643    0.218765
C      -0.015648    0.063906    0.021627
C      -0.908880   -0.828435    0.794296
N       0.544846   -0.931238    1.031092
C       1.060891   -1.740310   -0.127115
C       0.561028   -0.711629   -1.166263
C      -0.256630   -1.050458   -2.427798
O       0.713491   -0.420459   -3.287774
C       1.544471   -0.067828   -2.164535
H       1.052618    1.939965    0.041919
H      -0.640857    2.064376   -0.464509
H      -0.239074    1.809001    1.242480
H      -1.447165   -0.393132    1.630909
H      -1.423701   -1.656993    0.310015
H       2.150778   -1.810092   -0.080698
H       0.639176   -2.750787   -0.183208
H      -0.366282   -2.121124   -2.646506
H      -1.242515   -0.570652   -2.491308
H       1.678032    1.018143   -2.079325
H       2.533165   -0.543470   -2.215786
