23

C      -0.358964    1.382807   -0.603095
C      -0.147543    0.158571    0.297237
C      -1.369646   -0.727379    0.331123
O      -1.649526   -1.512016   -0.843098
C      -1.384943   -2.202556    0.390464
C      -0.116204   -3.028029    0.423528
C      -2.581977   -2.898339    0.985395
C      -3.979487   -2.517693    0.580270
C      -3.398915   -3.834006    0.126267
H       0.529474    2.021006   -0.616333
H      -0.571360    1.070504   -1.629863
H      -1.202514    1.989557   -0.256160
H       0.721772   -0.406529   -0.049881
H       0.071044    0.482470    1.323431
H      -2.259793   -0.231200    0.727319
H       0.710638   -2.528638   -0.082989
H       0.180635   -3.234750    1.457768
H      -0.287325   -3.989698   -0.071116
H      -2.437050   -3.201245    2.019443
H      -4.753691   -2.524074    1.339311
H      -4.079364   -1.745570   -0.173830
H      -3.123964   -3.912710   -0.919992
H      -3.770668   -4.751511    0.568457
