21

C       0.202522    1.604599   -0.274404
C       1.528848    2.140681    0.324203
C       2.419670    0.991542    0.869292
C       1.583632    0.167640    1.830974
C       0.388921   -0.248462    1.416086
C      -0.036814    0.094262    0.005373
C       0.709111   -0.790125   -1.022881
C       2.206789   -0.625391   -1.071074
C       2.953956    0.134639   -0.269893
H      -0.635799    2.171323    0.142288
H       0.176072    1.768438   -1.357102
H       2.087155    2.710658   -0.425370
H       1.316106    2.825424    1.151993
H       3.270347    1.431647    1.397488
H       1.969105   -0.057439    2.820790
H      -0.267677   -0.841486    2.046050
H      -1.105723   -0.110518   -0.118060
H       0.473315   -1.849116   -0.836778
H       0.301936   -0.576691   -2.022745
H       2.705445   -1.204253   -1.847183
H       4.029237    0.159061   -0.430244
