21

C       0.090808    1.564945    0.014104
C       0.320491    0.055758    0.019399
C       0.527992   -0.530771   -1.367219
O       0.525654    0.197826   -2.353880
C       0.761252   -1.993994   -1.495193
C       0.784479   -2.867723   -0.256670
C       0.235393   -2.620855   -2.801546
C       1.695234   -2.383656   -2.681224
O       2.363685   -1.439785   -3.427572
H       0.942344    2.087635   -0.427995
H      -0.790693    1.824435   -0.577426
H      -0.053480    1.934035    1.033291
H       1.194381   -0.207192    0.630931
H      -0.519400   -0.472187    0.491113
H      -0.187067   -2.888587    0.250628
H       1.027011   -3.899714   -0.527457
H       1.535966   -2.538674    0.468501
H      -0.153463   -3.631015   -2.725655
H      -0.317574   -1.953103   -3.453539
H       2.336917   -3.235153   -2.474710
H       1.798399   -0.646873   -3.441629
