16

C       0.070218   -1.150515   -0.033119
C      -0.007744    0.053196   -0.012658
C      -0.043500    1.457255    0.011633
C      -1.073499    2.324625    0.018872
C      -0.392641    3.692856    0.048057
C       0.741053    3.465241   -1.014205
C       1.187161    2.395370    0.037526
C       0.724618    3.427915    1.119042
H       0.122688   -2.210515   -0.051262
H      -2.134628    2.123262    0.007172
H      -1.017616    4.584662    0.058846
H       0.442907    3.109761   -2.003071
H       1.434413    4.308304   -1.092921
H       2.174248    1.936316    0.037098
H       1.416456    4.267522    1.237869
H       0.411373    3.038142    2.090159
