21

C      -0.101559    1.535348    0.020094
C       0.063096    0.016566    0.028758
C       1.008662   -0.563011   -1.084380
C       1.981360   -1.366940   -0.202449
C       1.020461   -2.046426    0.814018
C       0.776301   -0.578979    1.264262
C       2.294426   -0.326743    0.933649
C       3.241455   -0.751659    1.944003
C       4.041380   -1.082078    2.779964
H       0.858344    2.054713    0.111455
H      -0.566257    1.871123   -0.913200
H      -0.738887    1.867753    0.846797
H      -0.932227   -0.435270   -0.053149
H       0.479060   -1.198073   -1.800250
H       1.514979    0.227316   -1.648466
H       2.786898   -1.912185   -0.693838
H       0.167199   -2.603798    0.416078
H       1.548333   -2.637291    1.563041
H       0.372982   -0.333221    2.247040
H       2.551659    0.680577    0.590561
H       4.746260   -1.375363    3.517577
