21

C       0.248018    1.401281   -0.436950
C      -0.159415    0.060663    0.118031
O       0.853036   -0.945510    0.232151
C       0.231218   -0.475635    1.435926
C       1.101240    0.238917    2.431458
C       0.380591    0.665191    3.731124
O       1.089438   -0.314792    4.509264
C       1.949151   -0.651839    3.391021
C       2.065719   -2.144179    3.162188
H       1.190697    1.752187   -0.013022
H       0.373857    1.332613   -1.522533
H      -0.527729    2.148714   -0.237786
H      -1.098735   -0.320299   -0.290143
H      -0.452625   -1.201740    1.881919
H       1.680272    1.023243    1.944481
H       0.595222    1.691109    4.057939
H      -0.705011    0.506175    3.759255
H       2.950505   -0.223906    3.545360
H       1.085092   -2.609941    3.036996
H       2.663460   -2.345021    2.267615
H       2.556915   -2.613219    4.020505
