18

O      -0.001837    1.280284   -0.233352
C       0.060113   -0.139205   -0.139259
C      -1.354861   -0.610027    0.169031
C      -2.353240   -0.356286   -0.999148
C      -2.277289   -1.857145   -1.391574
C      -1.633873   -2.135062    0.008058
C      -0.555113   -3.176030    0.067635
O       0.577950   -3.013026    0.448831
H       0.890800    1.607078   -0.376798
H       0.415902   -0.581276   -1.083990
H       0.748493   -0.465593    0.648752
H      -1.652545   -0.188921    1.132595
H      -3.347200   -0.076034   -0.641971
H      -2.031980    0.371569   -1.745628
H      -3.212601   -2.372348   -1.618550
H      -1.573959   -2.040525   -2.208876
H      -2.419908   -2.459112    0.703174
H      -0.890473   -4.177032   -0.297369
