17

O       0.023938    1.365482    0.162364
C       0.005410   -0.039950    0.033037
C      -1.415694   -0.560071   -0.163709
C      -1.537589   -2.096833   -0.167538
C      -2.749092   -2.359741    0.744304
C      -2.659275   -1.185144    1.719692
O      -2.223857   -0.082027    0.930575
H      -0.662061    1.570847    0.809986
H       0.626023   -0.296359   -0.833394
H       0.446436   -0.533368    0.916954
H      -1.830121   -0.113741   -1.076453
H      -1.663181   -2.499185   -1.174762
H      -0.634849   -2.549215    0.259674
H      -3.681179   -2.300477    0.173349
H      -2.713187   -3.332828    1.240263
H      -3.614406   -0.913900    2.178810
H      -1.940207   -1.399409    2.526420
