14

C       0.047617    1.517485   -0.110931
C      -0.001449    0.007598    0.014508
O       0.651520   -0.549729   -1.141673
C       0.706698   -1.886019   -1.208473
N       0.229880   -2.671596   -0.335227
C       1.417429   -2.324837   -2.471100
O       1.582582   -3.485820   -2.738922
H       1.080913    1.873328   -0.151605
H      -0.468336    1.852000   -1.015290
H      -0.440844    1.975654    0.753954
H       0.511350   -0.351856    0.912966
H      -1.027487   -0.373257    0.054191
H       0.411184   -3.631701   -0.636954
H       1.769545   -1.499981   -3.121918
