20

C      -0.366234    1.571079    0.155551
C      -0.062997    0.078033    0.093953
C       0.410814   -0.534811   -1.235708
C       1.768360   -0.022912   -1.624742
C       1.670943   -1.085658   -0.563210
C       1.233724   -0.501910    0.785836
C       2.190587    0.420464    1.519220
O       1.551407    0.835751    2.722345
H       0.431695    2.173812   -0.290048
H      -1.289021    1.799690   -0.389022
H      -0.486468    1.894542    1.193423
H      -0.930047   -0.472831    0.470068
H      -0.233055   -1.023821   -1.957438
H       2.131459   -0.373891   -2.585710
H       2.080481    0.990506   -1.388186
H       2.136927   -2.055455   -0.693372
H       0.949141   -1.296104    1.482351
H       3.124927   -0.124913    1.733147
H       2.457116    1.287242    0.897047
H       2.122597    1.471818    3.162539
