20

C       0.134438    0.655245   -0.854534
C      -0.422533   -0.438005    0.073463
O       0.423844   -0.603860    1.179612
C      -1.839396   -0.109391    0.556885
O      -2.029760    0.045179    1.745557
C      -2.982673   -0.020427   -0.444573
C      -3.355688   -1.384118   -1.003798
C      -4.038972   -1.497307   -2.314690
N      -2.648172   -1.963430   -2.157481
H       1.173375    0.413591   -1.090346
H      -0.422002    0.727042   -1.794323
H       0.115799    1.629535   -0.356571
H      -0.484554   -1.381636   -0.493746
H      -0.129131   -0.410218    1.954095
H      -3.836490    0.412656    0.085454
H      -2.715069    0.649091   -1.270469
H      -3.596914   -2.122662   -0.241737
H      -4.770346   -2.282147   -2.483118
H      -4.221210   -0.581349   -2.871483
H      -2.013750   -1.277409   -2.560456
