20

C      -0.118554    1.564124    0.083130
C       0.045393    0.058863    0.079273
C       1.335405   -0.653222   -0.232867
C       2.614892    0.148765   -0.105243
O       2.643244    0.661203    1.239972
C       1.686999    0.057695    2.016888
N       1.620862    0.162383    3.274594
C       0.754555   -0.740231    1.168030
C       0.115543   -1.960042    1.783023
H       0.763877    2.079193    0.469385
H      -0.307139    1.932683   -0.931362
H      -0.970531    1.855368    0.705800
H      -0.830980   -0.467683   -0.292613
H       1.334409   -1.508074   -0.899191
H       3.498612   -0.481162   -0.261292
H       2.674318    1.004654   -0.785893
H       2.394953    0.726681    3.628545
H      -0.485092   -1.673723    2.650936
H      -0.533139   -2.466195    1.061846
H       0.870793   -2.673595    2.127362
