19

C      -0.178561    1.638631   -0.015627
C       0.026299    0.133518    0.013403
C       1.167370   -0.605509   -0.745676
C       2.455182    0.070805   -0.245146
C       2.128099    0.078902    1.281788
C       0.740410   -0.602026    1.199332
N       1.073056   -1.742411    0.254273
C       0.049809   -0.902144    2.434503
N      -0.525559   -1.124818    3.412490
H       0.742568    2.196544    0.170412
H      -0.564703    1.950516   -0.991973
H      -0.911196    1.940600    0.740190
H      -0.920995   -0.379771   -0.182621
H       1.095500   -0.860196   -1.802540
H       3.332412   -0.534832   -0.476234
H       2.599044    1.070646   -0.660657
H       2.818434   -0.527752    1.868182
H       2.074626    1.077529    1.719095
H       0.200713   -2.241988    0.070536
