21

O      -0.228021    1.495378    0.243782
C      -0.045969    0.095102    0.301912
C      -1.383062   -0.617429    0.054296
O      -1.956714   -0.107259   -1.151096
C      -1.279384   -2.142167   -0.031162
O      -0.461752   -2.386048   -1.166568
C      -0.918927   -2.846052    1.311246
C      -2.430773   -3.131628    1.523116
C      -2.667868   -2.841195    0.015942
H      -0.804889    1.638563   -0.518388
H       0.691017   -0.252736   -0.438263
H       0.343656   -0.140375    1.297668
H      -2.078269   -0.340786    0.854633
H      -1.507254   -0.579831   -1.865250
H      -0.518434   -3.320147   -1.389251
H      -0.352651   -3.762797    1.118834
H      -0.389155   -2.266746    2.070782
H      -2.701781   -4.124654    1.885272
H      -2.906442   -2.389330    2.168226
H      -3.530601   -2.241168   -0.279273
H      -2.661928   -3.762579   -0.577572
