17

N      -0.191437    1.531645   -0.016196
C      -0.060687    0.092065   -0.006106
C       0.844490   -0.489861   -1.128708
C       2.204219    0.035848   -1.051724
N       3.267009    0.480238   -0.955873
C       0.282882   -0.534294    1.398582
C      -1.024231   -1.332183    1.306140
O      -2.086349   -0.378425    1.217738
C      -1.388940   -0.705460    0.024996
H       0.714806    1.970196    0.126025
H      -0.544795    1.862416   -0.910194
H       0.879932   -1.584366   -1.076907
H       0.422557   -0.230012   -2.107655
H       1.192112   -1.139410    1.392319
H       0.312349    0.180707    2.221820
H      -1.263318   -2.311657    1.702516
H      -1.967503   -1.071473   -0.817590
