14

O      -0.567001    0.653841    0.705693
C       0.162542    0.941232   -0.204997
C       1.319664    1.931487   -0.087216
C       1.425689    2.629972    1.302238
N       2.608982    1.806316    1.570816
C       2.645940    1.151524    0.380368
O       3.358149    0.329561   -0.113599
C       1.464456    2.736056   -1.275844
C       1.563921    3.382679   -2.284435
H       0.067621    0.484797   -1.210070
H       1.630944    3.700884    1.245420
H       0.575973    2.419607    1.954144
H       3.203843    1.721006    2.381460
H       1.663987    3.957871   -3.171849
