17

C      -0.157687    1.458535    0.098532
C       0.092677   -0.030692   -0.179876
C       0.909934   -0.225330   -1.376537
C       1.573104   -0.371420   -2.366942
N       0.784868   -0.613087    0.986876
C      -0.042793   -1.064353    2.088588
C       0.675300   -2.057368    1.220095
C      -0.110010   -2.903797    0.352890
N      -0.724321   -3.595776   -0.341274
H       0.789848    1.972497    0.274654
H      -0.657754    1.920417   -0.755705
H      -0.793134    1.576633    0.981196
H      -0.879411   -0.526134   -0.344682
H       2.154083   -0.513208   -3.244686
H       0.332437   -0.862193    3.087317
H      -1.125101   -1.020569    1.977592
H       1.587766   -2.524958    1.578252
