17

O      -0.083159   -0.011832    0.136478
C       0.023901    1.177361   -0.051671
C       1.327003    1.901365   -0.038122
C       2.628247    1.156186    0.221564
C       3.651012    2.330365    0.130545
C       2.712993    3.495243   -0.161879
C       1.568404    3.031181   -1.107757
O       0.604037    3.921724   -0.451746
C       1.387968    3.323379    0.634931
H      -0.858303    1.819141   -0.250678
H       2.624179    0.666792    1.198837
H       2.802699    0.377606   -0.525403
H       4.206269    2.476462    1.061623
H       4.385225    2.186537   -0.667456
H       3.102070    4.504704   -0.290852
H       1.537667    2.953699   -2.195255
H       1.138499    3.600125    1.660005
