20

C       0.003106    1.572069   -0.025407
C       0.005631    0.039424   -0.006405
C       0.783011   -0.498036    1.222749
C       2.189721   -0.117643    1.223536
C       3.349534    0.197816    1.203497
C      -1.440348   -0.533743   -0.024904
C      -2.282414   -0.060510   -1.227946
C      -1.418109   -2.002005   -0.001562
N      -1.400717   -3.158055    0.001994
H       1.024750    1.945581    0.077865
H      -0.405801    1.971146   -0.956389
H      -0.587552    1.975014    0.806594
H       0.517225   -0.324882   -0.905591
H       0.303626   -0.128749    2.140347
H       0.707866   -1.591160    1.254442
H       4.376939    0.465987    1.197835
H      -1.943219   -0.211510    0.897881
H      -1.781574   -0.301476   -2.170136
H      -3.259042   -0.550277   -1.228060
H      -2.442176    1.018187   -1.183465
