22

C      -2.197626   -1.700606    1.637887
C      -1.352000   -0.532106    1.112079
C      -1.975726    0.804048    1.545439
C       0.121702   -0.567833    1.524456
C       0.690081   -1.479080    2.591895
C       1.073653   -1.676700    1.144497
C       0.622206   -2.846515    0.302133
N       0.627522   -4.060170    0.933778
O       0.295388   -2.720290   -0.862603
H      -2.284107   -1.665727    2.730137
H      -3.210063   -1.640743    1.226257
H      -1.791102   -2.676527    1.360570
H      -1.371678   -0.577648    0.015630
H      -1.953290    0.912379    2.636373
H      -1.438225    1.655087    1.114170
H      -3.020306    0.871523    1.224645
H       0.582002    0.416507    1.485302
H       1.432344   -1.085978    3.278564
H       0.018205   -2.205259    3.036764
H       2.066749   -1.349592    0.847075
H       1.030040   -4.169722    1.847864
H       0.446091   -4.881942    0.380040
