19

C       0.085948    1.460053    0.049919
C      -0.029873   -0.028110   -0.027635
C      -0.131603   -0.807282   -1.111727
C      -0.045514   -2.261979   -0.697531
C       1.426373   -2.519201   -0.172620
C       0.932976   -2.127952    1.212605
O       1.567479   -2.403002    2.408786
C      -0.516936   -2.283414    0.796066
C      -0.006263   -0.912302    1.183722
H       1.042794    1.761186    0.495118
H       0.012942    1.920368   -0.939175
H      -0.700034    1.889434    0.684435
H      -0.108813   -0.472903   -2.142320
H      -0.441998   -3.001704   -1.391192
H       1.662811   -3.588373   -0.198174
H       2.237807   -1.948890   -0.637392
H       1.745879   -3.349647    2.443482
H      -1.360987   -2.797289    1.239714
H      -0.236691   -0.527031    2.171189
