19

C      -0.671373    0.633040    0.095424
O       0.678605    0.224201   -0.008434
C       0.982511   -0.478251   -1.198800
C       2.502044   -0.660534   -1.238068
C       0.279970   -1.766522   -1.286476
C      -0.308035   -2.820617   -1.341491
C      -1.018730   -4.084517   -1.408572
C      -0.585078   -5.016600   -2.521748
O      -1.897860   -4.360327   -0.620272
H      -0.956620    1.293059   -0.738555
H      -1.357103   -0.224165    0.115554
H      -0.761659    1.186115    1.032568
H       0.670549    0.123633   -2.071482
H       2.982123    0.319526   -1.189135
H       2.828925   -1.256062   -0.382555
H       2.804143   -1.165477   -2.158576
H       0.478264   -5.257876   -2.417079
H      -1.181122   -5.929603   -2.485989
H      -0.707397   -4.525609   -3.493245
