18

C       0.087061    1.501782    0.014198
C       0.100280   -0.013023    0.074482
O       1.114321   -0.641171    0.279714
C      -1.240620   -0.711274   -0.136259
C      -1.157819   -2.203489    0.132078
N      -1.120056   -2.600848    1.566562
C      -2.156093   -3.651838    1.385007
C      -2.429700   -3.056948   -0.006517
O      -3.287408   -3.165017   -0.830298
H       1.106090    1.886559    0.066786
H      -0.400265    1.851318   -0.902403
H      -0.495394    1.898588    0.853910
H      -1.994846   -0.247806    0.510638
H      -1.568487   -0.531667   -1.169719
H      -0.342161   -2.635745   -0.465408
H      -0.215362   -2.942468    1.867272
H      -1.787166   -4.685542    1.320400
H      -2.981032   -3.618286    2.104807
