19

C       0.024988    1.516831   -0.069593
C      -0.039010    0.020128    0.021786
O       0.383682   -0.710938   -1.187885
C      -0.285420   -1.840377   -0.539767
C       0.577203   -2.020433    0.725681
C       0.744637   -0.754123    1.109525
C      -1.340480   -0.831119   -0.039583
C      -2.543763   -0.937787    0.826467
C      -2.661127   -0.479143   -0.625626
H       1.056334    1.843329   -0.235431
H      -0.587872    1.881210   -0.898261
H      -0.331690    1.974301    0.859136
H      -0.501957   -2.683839   -1.194199
H       0.915201   -2.947296    1.165085
H       1.263780   -0.330384    1.957181
H      -2.915449   -1.925226    1.081994
H      -2.690389   -0.195701    1.605412
H      -2.886737    0.567003   -0.809558
H      -3.110746   -1.159687   -1.341828
