18

N      -0.052375   -1.129823   -0.340209
C      -0.012278   -0.014225   -0.041572
C       0.070120    1.399293    0.322871
C       1.464280    1.984416    0.059596
C       1.842692    2.199894   -1.423693
O       1.833148    3.637118   -1.261488
C       1.566217    3.508102    0.134693
C       0.743637    4.510802    0.875058
C       2.237752    4.375569    1.145536
H      -0.682817    1.955811   -0.246562
H      -0.193082    1.502507    1.381879
H       2.213536    1.447599    0.644882
H       2.831224    1.827976   -1.712882
H       1.100643    1.865232   -2.157458
H       0.414100    5.378627    0.313923
H       0.045541    4.170463    1.633539
H       2.556918    3.933470    2.084153
H       2.886219    5.157341    0.765339
