20

C      -0.000376    1.574610    0.098751
C       0.038454    0.044554    0.079965
C      -1.344492   -0.588014    0.093592
C      -1.369615   -2.133104    0.102816
O      -2.399384   -2.473256    1.023368
C      -2.995076   -1.262533    1.469321
C      -3.407409   -1.376778    2.919272
O      -2.019257   -0.262424    1.305858
H       1.010253    1.993282    0.107365
H      -0.518083    1.968108   -0.783026
H      -0.528514    1.934373    0.985618
H       0.567040   -0.309399   -0.814352
H       0.593808   -0.331311    0.947757
H      -1.934611   -0.213800   -0.760559
H      -1.584473   -2.546976   -0.890168
H      -0.419555   -2.552043    0.458186
H      -3.867249   -1.034901    0.825673
H      -2.529148   -1.583767    3.535361
H      -3.871273   -0.444687    3.252314
H      -4.127627   -2.190206    3.036500
