21

C      -0.005724    1.505278    0.124222
C       1.313437    0.780530    0.027628
C       0.009167   -0.000334    0.036597
C      -0.129738   -0.698047   -1.318612
C      -0.707173    0.089941   -2.546183
C       0.716044    0.262252   -3.138165
C       1.546056    1.438877   -2.561698
C       1.980298    0.565197   -1.333119
C       1.275562   -0.659280   -2.002296
H      -0.259883    1.940824    1.085560
H      -0.359584    2.086624   -0.718834
H       1.955088    0.791297    0.902245
H      -0.294482   -0.555510    0.917712
H      -0.578631   -1.685686   -1.198250
H      -1.326513   -0.556780   -3.173625
H      -1.278634    0.999396   -2.338160
H       0.830221    0.059279   -4.203650
H       2.402219    1.675470   -3.199290
H       1.016458    2.373397   -2.353989
H       3.064016    0.495101   -1.223281
H       1.828935   -1.585438   -2.162664
