20

N      -0.142070    1.239212    0.632297
C      -0.051634    0.080758    0.126477
C      -1.255061   -0.825193    0.026933
C      -1.255386   -1.617093   -1.285785
C      -0.001038   -2.487882   -1.313497
C       0.594874   -2.778045   -2.720546
C       1.558521   -1.571105   -2.533484
C       1.263455   -1.638367   -1.016324
O       1.144195   -0.391898   -0.333990
H       0.773814    1.694034    0.624046
H      -1.236848   -1.527462    0.871839
H      -2.140193   -0.199348    0.146225
H      -2.157240   -2.230809   -1.373470
H      -1.262956   -0.920809   -2.133497
H      -0.138621   -3.351532   -0.656169
H       1.125211   -3.732629   -2.757335
H      -0.099789   -2.734001   -3.562388
H       2.597035   -1.686002   -2.849155
H       1.158486   -0.650682   -2.965771
H       2.027281   -2.212171   -0.482888
