13

N      -0.104578    1.317820    0.503066
C      -0.055000    0.131882    0.039682
C       1.239763   -0.515289   -0.281937
N       1.668696   -1.368128   -1.133087
O       0.832156   -1.988075   -2.057809
C      -0.501634   -2.151213   -1.955065
C      -1.438486   -1.666856   -1.122395
C      -1.362134   -0.628838   -0.101162
O      -2.310588   -0.338244    0.594405
H       0.832016    1.725004    0.585466
H       2.070654   -0.140943    0.318831
H      -0.787193   -2.856607   -2.730420
H      -2.439454   -2.057032   -1.272942
