13

N      -0.073438    1.238641    0.335734
C      -0.016683    0.023883    0.011417
O       1.121080   -0.689436   -0.260395
C       0.826580   -1.951493   -0.873979
C      -0.675227   -2.136028   -0.711438
O      -1.077728   -2.066189    0.654027
C      -1.197382   -0.877171   -0.142771
C      -1.407986   -3.009281   -1.590026
N      -1.959461   -3.720888   -2.314151
H       0.856288    1.661714    0.350525
H       1.107814   -1.923188   -1.932062
H       1.395299   -2.731563   -0.361494
H      -2.193975   -0.484337   -0.300561
