16

C      -0.018021   -1.192171   -0.082840
C       0.002778    0.008139   -0.017728
C       0.030601    1.457960    0.047717
C      -0.423928    2.069089    1.427216
C       0.881526    2.824463    1.746653
C       1.237797    3.538042    0.423560
C       1.472308    2.057774    0.056810
O       1.898819    1.822837    1.427786
H      -0.033221   -2.252414   -0.135110
H      -0.551107    1.871859   -0.782946
H      -1.294745    2.722691    1.335840
H      -0.631561    1.293776    2.165089
H       0.997070    3.280659    2.729344
H       0.470639    4.111028   -0.104418
H       2.175168    4.089405    0.496043
H       2.173066    1.713279   -0.702215
