21

C      -0.000520    1.465025    0.011511
C       0.018989   -0.037098   -0.001122
C       0.649527   -0.969835   -1.088431
C       0.023297   -1.919774   -0.017092
O      -0.077003   -3.296946   -0.029266
C       0.639109   -0.988212    1.076207
C      -1.194785   -0.997437   -0.015123
C      -2.471431   -1.035804    0.744589
C      -2.464010   -1.022751   -0.787705
H       1.015866    1.872904    0.018377
H      -0.512645    1.860165   -0.872824
H      -0.518622    1.845224    0.898905
H       0.176053   -0.962963   -2.072996
H       1.742413   -0.957611   -1.155749
H       0.810532   -3.670487   -0.028319
H       1.731293   -0.977254    1.154266
H       0.156158   -0.997993    2.056135
H      -2.754775   -1.961059    1.236654
H      -2.812478   -0.137741    1.251377
H      -2.800197   -0.116147   -1.282393
H      -2.742508   -1.939457   -1.298193
