15

C       0.072892   -1.170258    0.081053
C      -0.015763    0.031289    0.040724
C      -0.057879    1.443418   -0.016945
C      -1.159233    2.216322   -0.045182
C      -0.797219    3.657631   -0.020807
N      -0.062294    4.039811    1.224675
C       0.691842    3.714766   -0.001841
C       1.218126    2.286245   -0.034742
H       0.133199   -2.229461    0.120537
H      -2.176307    1.846086   -0.046667
H      -1.415368    4.403050   -0.508722
H      -0.096865    5.054365    1.316211
H       1.241076    4.503514   -0.504228
H       1.855739    2.062604    0.826868
H       1.806320    2.087561   -0.938675
