13

C      -0.020000    1.486311    0.083212
C      -0.006357   -0.002138   -0.054336
N      -0.100775   -0.605299   -1.171961
C      -0.080255   -2.025510   -1.223199
O      -0.168889   -2.612850   -2.277573
C       0.053869   -2.694820    0.076413
C       0.145605   -1.961720    1.189943
O       0.119717   -0.604118    1.171182
H       0.904162    1.830665    0.558139
H      -0.120814    1.937710   -0.902149
H      -0.850948    1.799318    0.723340
H       0.076666   -3.775855    0.114569
H       0.247304   -2.341817    2.198994
