17

O      -0.354182    0.043069   -0.711186
C      -0.180916    1.182208   -0.348520
C      -1.114585    2.085376    0.477388
C      -0.332280    3.362134    0.628840
C       0.844348    3.232709   -0.002610
N       0.940131    1.956690   -0.595373
C       1.969607    4.176009   -0.157642
C       2.181014    5.272935    0.814930
N       3.111374    4.132838    0.793788
H      -2.064353    2.213102   -0.055350
H      -1.354669    1.589580    1.425310
H      -0.680782    4.252968    1.127989
H       1.752535    1.598759   -1.070981
H       2.295830    4.330479   -1.184983
H       2.600777    6.213916    0.472594
H       1.486298    5.359570    1.644932
H       2.876067    3.503039    1.558756
