19

O      -0.161748    1.459917   -0.055248
C       0.017675    0.051796   -0.001401
C      -1.383653   -0.564071    0.052978
C      -1.390105   -2.053692   -0.235695
O      -1.295195   -2.440853   -1.615660
C      -0.196288   -2.749601   -0.746660
C       1.078836   -1.990942   -1.052176
O       1.721467   -2.534546   -2.197441
C       0.814181   -0.485939   -1.194687
H       0.708333    1.870877   -0.082304
H       0.554335   -0.223814    0.923658
H      -1.830357   -0.375676    1.034071
H      -2.012715   -0.055796   -0.686753
H      -2.116324   -2.644338    0.322242
H      -0.066801   -3.813536   -0.546742
H       1.782039   -2.161382   -0.226699
H       1.083446   -2.493778   -2.919911
H       0.252294   -0.297403   -2.116333
H       1.775465    0.033600   -1.280489
