16

O       0.040443    1.394678    0.026860
C       0.023528   -0.005187    0.042314
C      -0.024288   -0.646551    1.431929
C      -1.544309   -0.164226    1.526313
C      -1.358555   -0.776457    0.104747
N      -1.954885   -1.292915   -1.117110
C      -1.199266   -2.304409   -1.333094
O      -0.236389   -2.679721   -0.412445
C      -0.632937   -1.921185    0.760105
H      -0.095533    1.685834   -0.880177
H       0.751368   -0.429768   -0.656756
H       0.719964   -0.584341    2.224579
H      -2.188191   -0.717012    2.213709
H      -1.676161    0.912284    1.597190
H      -1.222986   -2.930321   -2.218049
H      -1.178114   -2.589686    1.431019
