12

N      -0.057272    1.448447   -0.115118
C       0.009752    0.181435   -0.144670
O      -1.116723   -0.595784   -0.256402
C      -2.338773   -0.054947    0.093035
O      -3.342104   -0.657733   -0.111778
C       1.191838   -0.616654   -0.099857
C       2.222986   -1.251588   -0.059848
C       3.378030   -1.962919   -0.016764
C       4.405740   -2.595548    0.022530
H       0.869612    1.858927   -0.023814
H      -2.242921    0.928196    0.569382
H       5.308609   -3.154848    0.055366
