22

C       0.203587    1.555769    0.005869
N       0.182665    0.094956    0.010990
C       1.288107   -0.741652   -0.431255
C       2.690341   -0.149563   -0.510732
C       2.947742    0.495062    0.870922
C       1.963060   -0.191281    1.848375
O       1.421903    0.673066    2.844603
C       0.831764   -0.759504    0.997497
C      -0.030740   -1.826966    1.628198
H       1.076701    1.980119   -0.506004
H      -0.686737    1.915208   -0.522058
H       0.183379    1.943934    1.026915
H       1.026962   -1.529448   -1.136181
H       3.400653   -0.960718   -0.706574
H       2.802589    0.567055   -1.332869
H       3.987391    0.377881    1.190691
H       2.735136    1.566603    0.859760
H       2.462035   -1.043791    2.338210
H       2.139898    0.956234    3.419234
H      -0.537763   -1.429920    2.514249
H      -0.791354   -2.167725    0.922424
H       0.570325   -2.687661    1.944207
