18

C      -0.076514    1.424615   -0.366253
C      -0.051875   -0.059059    0.027842
O       0.794672   -0.292662    1.151052
C      -1.406679   -0.578642    0.248078
C      -2.524751   -0.976797    0.455690
C      -3.863570   -1.494067    0.716576
N      -3.973529   -2.920405    0.428352
C      -4.989414   -3.428700   -0.319113
O      -5.920638   -2.786891   -0.756598
H       0.947105    1.775681   -0.519710
H      -0.649750    1.574576   -1.285513
H      -0.540322    2.023380    0.424460
H       0.413988   -0.629873   -0.784550
H       0.373401    0.111581    1.917947
H      -4.142516   -1.290581    1.759737
H      -4.612134   -1.000558    0.088160
H      -3.214683   -3.523655    0.702469
H      -4.872992   -4.517930   -0.481620
