18

C       0.007613    1.533707   -0.106171
C      -0.047883    0.006132   -0.138577
C      -1.455920   -0.539867    0.172771
N      -2.452865   -0.134447   -0.847932
C      -2.515685   -1.193601   -1.873940
C      -2.162478   -2.492900   -1.162085
O      -2.356122   -3.625921   -1.508240
C      -1.468865   -2.064399    0.167304
O      -1.027701   -2.822142    0.988670
H       1.002682    1.895081   -0.381424
H      -0.720302    1.956988   -0.803238
H      -0.222546    1.914444    0.895167
H       0.270853   -0.357176   -1.124285
H       0.645787   -0.427755    0.590361
H      -1.764175   -0.174262    1.157456
H      -3.362130   -0.048881   -0.408627
H      -3.499843   -1.246898   -2.344333
H      -1.785563   -1.002618   -2.672912
