15

C       0.150555    1.439941   -0.150940
N       0.040879    0.008589    0.035745
C       0.546768   -0.615329    1.133503
N       1.014626    0.100644    2.109734
O       1.439671   -0.632013    3.253719
C       1.395226   -1.988703    3.285541
N       1.766397   -2.678983    4.288064
C       0.890976   -2.646404    2.078516
N       0.478706   -2.015904    1.046706
H       1.194672    1.772806   -0.220267
H      -0.377401    1.717116   -1.064972
H      -0.306116    1.959503    0.696040
H      -0.069748   -0.590645   -0.765410
H       2.092469   -2.074461    5.045153
H       0.879870   -3.734137    2.091465
