10

C       0.096913   -1.152240   -0.004902
C       0.004585    0.046698    0.002781
C      -0.098248    1.453059    0.011721
N      -1.173691    2.188333    0.030309
C      -0.704370    3.487971    0.030952
C       0.651946    3.472351    0.012559
O       1.059878    2.175824    0.000078
H       0.171883   -2.211718   -0.011600
H      -1.372899    4.333753    0.044553
H       1.424453    4.221799    0.006184
