16

C       0.105968    0.808305    1.011349
C      -0.277969    0.051875   -0.273380
C      -1.695321   -0.451267   -0.259357
C      -2.138572   -1.561487    0.685648
C      -1.047593   -2.349322    1.248946
N      -0.187634   -2.977992    1.696633
N      -2.524384    0.109513   -1.052842
O      -3.819178   -0.414128   -0.923131
H       1.137258    1.165426    0.941945
H      -0.545955    1.673973    1.162357
H       0.039822    0.166638    1.894735
H      -0.171156    0.707553   -1.141100
H       0.403408   -0.796212   -0.410369
H      -2.727748   -1.131728    1.505775
H      -2.826345   -2.223040    0.148931
H      -4.305020    0.068591   -1.600270
