16

C      -0.277202    1.531791    0.036743
C       0.084046    0.068067   -0.045626
O       1.388898   -0.152533   -0.703535
C       1.934674   -0.685795    0.437382
N       3.092688   -1.070033    0.718532
C       0.635420   -0.622678    1.225274
O       0.617064    0.194634    2.382405
C       1.325488   -0.245558    3.456848
O       1.356541    0.370877    4.476424
H       0.486329    2.096672    0.574948
H      -0.384558    1.943360   -0.970555
H      -1.228008    1.651592    0.564619
H      -0.678773   -0.515297   -0.567684
H       3.742112   -0.946028   -0.059763
H       0.195991   -1.602820    1.433375
H       1.847238   -1.199190    3.270954
