16

O      -0.129539    1.360034    0.057559
C       0.042406   -0.003811    0.021877
C      -0.179954   -0.858136   -1.251907
C      -1.008818   -1.052398   -0.014260
N       0.042617   -2.059339    0.475265
C       0.611057   -2.149598   -0.943642
C       2.094187   -1.960991   -0.782248
C       2.294992   -1.225999    0.316800
C       0.949950   -0.907760    0.902811
H       0.553578    1.770084   -0.485010
H      -0.447284   -0.392753   -2.193156
H      -2.066210   -1.093611    0.201641
H       0.276721   -3.041525   -1.476260
H       2.840609   -2.314035   -1.482754
H       3.239557   -0.858610    0.697938
H       0.893887   -0.698079    1.971961
