18

C       0.779150    1.371065   -0.202341
N       0.894780   -0.103820   -0.285301
H       1.877983   -0.400652   -0.355528
H       0.506220   -0.563724    0.539260
C       0.127515   -0.822640   -1.535992
C       0.282439   -2.260292   -1.479641
C       1.526006   -2.989112   -1.957022
C       2.709793   -2.288524   -1.481309
N       3.541285   -1.600325   -1.051495
N      -0.668834   -2.921999   -0.801094
O      -0.525804   -4.158567   -0.631953
H       1.211367    1.804722   -1.105381
H      -0.276473    1.640544   -0.138551
H       1.311702    1.747632    0.672979
H      -0.911028   -0.525206   -1.379889
H       0.570346   -0.308969   -2.393417
H       1.429616   -3.990532   -1.504231
H       1.593805   -3.115746   -3.045692
