17

C      -0.072150    1.439278   -0.001842
N      -0.059331   -0.012919   -0.041567
C       0.550863   -0.606783   -0.964454
O       1.248454   -0.047472   -2.002038
C       1.789720   -1.078895   -2.827807
C       1.345906   -2.385948   -2.181125
O       1.578639   -3.513136   -2.545846
N       0.617216   -1.995497   -1.083515
C      -0.014767   -2.904878   -0.149207
H       0.478113    1.917671   -0.819721
H      -1.109686    1.791210   -0.027097
H       0.353914    1.777411    0.949531
H       1.399022   -0.990954   -3.846468
H       2.881372   -1.004926   -2.857381
H       0.202494   -3.918243   -0.489137
H       0.380721   -2.749183    0.857430
H      -1.093976   -2.735279   -0.126549
