16

C      -0.080609   -1.199665    0.009578
C      -0.028700    0.001444    0.003222
C       0.026635    1.435636   -0.038337
O       0.603340    2.114352    1.105332
C       1.315562    2.153909   -0.106640
C       2.765321    1.683928   -0.223553
N       3.165541    3.000392   -0.853187
C       2.369813    3.109612   -2.085447
C       1.706031    3.433599   -0.802495
H      -0.127414   -2.260743    0.023963
H      -0.856250    1.931437   -0.440315
H       3.237017    1.573780    0.754800
H       2.975469    0.805921   -0.841708
H       2.672826    3.939423   -2.716578
H       2.093646    2.204316   -2.623002
H       1.402070    4.432011   -0.507731
