21

C       0.042426    1.606948   -0.103962
C       0.096812    0.108508   -0.026389
C       0.591682   -0.819521   -1.145712
C       1.189733   -1.791431   -0.078044
O       2.588885   -1.971212   -0.138384
C       0.685806   -0.858165    1.034944
C       1.377764   -0.630414    2.347271
C      -0.812022   -0.697805    0.856275
O      -1.490793    0.052092    1.824321
H       1.022949    2.031010   -0.349088
H      -0.659383    1.928967   -0.883399
H      -0.294907    2.036451    0.841947
H      -0.168760   -1.219165   -1.826714
H       1.394512   -0.375860   -1.743416
H       0.773361   -2.805238   -0.064802
H       2.998523   -1.100053   -0.182376
H       2.434702   -0.381586    2.208111
H       0.907781    0.186673    2.901261
H       1.342682   -1.531507    2.973331
H      -1.404089   -1.513264    0.427016
H      -1.562474   -0.482914    2.621770
