25

C      -1.527770   -0.581963    0.624010
C      -0.206454   -0.023785    0.079540
C       0.314829   -0.762808   -1.177885
C      -0.426594   -0.160710   -2.386335
C       1.871439   -1.046579   -1.218070
C       1.635877   -2.105225   -0.093647
C       0.499189   -2.327059   -1.132145
C       1.642618   -2.229416   -2.212078
C       1.488135   -2.059407   -3.727024
H      -2.309575   -0.599688   -0.142788
H      -1.402207   -1.607235    0.987569
H      -1.898043    0.024086    1.457012
H      -0.347201    1.029769   -0.193492
H       0.532551   -0.013319    0.884246
H       0.091243    0.725793   -2.771753
H      -0.571686   -0.853944   -3.212215
H      -1.424392    0.168562   -2.078909
H       2.669983   -0.300314   -1.259177
H       2.385039   -2.897542   -0.025012
H       1.356607   -1.757733    0.898279
H      -0.291309   -3.081037   -1.087080
H       2.368056   -3.033949   -2.050336
H       1.304838   -1.033584   -4.045471
H       2.412818   -2.383109   -4.216448
H       0.681933   -2.685582   -4.126313
