21

O      -0.099142    1.440974    0.028057
C       0.016819    0.023805    0.012497
C       0.773980   -0.508588    1.237851
C       0.613871   -2.000113    1.390188
C      -0.344093   -2.692593    0.771096
C      -1.366014   -2.067074   -0.103296
C      -1.661512   -2.744554   -1.435034
C      -2.672038   -2.801876   -0.324732
C      -1.398849   -0.548380   -0.022462
H       0.788529    1.811309    0.065525
H       0.547168   -0.305148   -0.896562
H       1.839834   -0.251852    1.160546
H       0.400598    0.016821    2.129008
H       1.324145   -2.516075    2.030682
H      -0.401843   -3.771931    0.897152
H      -1.867095   -2.103481   -2.285972
H      -1.113201   -3.647967   -1.679340
H      -2.818421   -3.745697    0.190252
H      -3.571492   -2.201997   -0.417350
H      -1.917823   -0.231628    0.891622
H      -1.946911   -0.120220   -0.867728
