16

C      -0.057206    1.513033   -0.122755
C      -0.040892    0.019349    0.181303
N      -1.372451   -0.553129    0.013544
C      -1.518410   -1.908418    0.006053
N      -0.600822   -2.817254   -0.147124
C      -1.322517   -4.011055   -0.144088
C      -2.634916   -3.755363    0.021145
O      -2.782453   -2.381474    0.122297
H       0.945006    1.934095   -0.004767
H      -0.395423    1.700305   -1.145860
H      -0.723942    2.052457    0.560314
H       0.624439   -0.510239   -0.505212
H       0.347300   -0.162039    1.195041
H      -2.131908   -0.056447    0.456107
H      -0.831484   -4.964732   -0.257598
H      -3.536033   -4.337390    0.092504
