19

C      -0.124220    0.554658    0.847419
O       0.294740    0.961205   -0.441708
C       0.758206   -0.039950   -1.228290
C       0.918445   -1.392723   -1.041418
C       1.476673   -1.897111   -2.258017
C       1.624127   -0.847173   -3.128964
N       2.066618   -0.757671   -4.469330
N       1.169571    0.304239   -2.487967
C       1.119869    1.637207   -3.049103
H      -0.944203   -0.172644    0.785942
H       0.705037    0.105217    1.409134
H      -0.469655    1.453099    1.361170
H       0.679736   -1.953875   -0.153327
H       1.741744   -2.923356   -2.463736
H       3.078501   -0.702174   -4.542711
H       1.766936   -1.564436   -5.003251
H       0.141976    2.089187   -2.864340
H       1.885938    2.288126   -2.612431
H       1.290599    1.550246   -4.122497
