15

C      -0.004901    0.903561   -0.552664
O      -0.384719    0.544151    0.778284
C       0.460521   -0.316103    1.390082
C       0.946243   -1.558884    1.109998
O       0.705287   -2.302382   -0.000179
N       1.777285   -2.008578    2.116402
C       1.779333   -1.044502    3.002097
O       2.430015   -1.035328    4.179308
N       1.025824    0.013840    2.634409
H       0.030113    0.021547   -1.200526
H      -0.768291    1.595184   -0.914776
H       0.975217    1.396295   -0.561247
H       1.228690   -3.106430    0.094252
H       2.882182   -1.885487    4.245295
H       0.839601    0.846007    3.167127
