18

C       0.000472    1.488213    0.095935
C       1.457063    2.007678   -0.166774
C       2.042857    0.890722   -0.992125
N       1.836239    0.603608   -2.458672
C       2.071179   -0.755660   -1.859651
C       3.144883   -0.202235   -0.859774
O       2.553534   -0.812546    0.320115
C       1.392334   -0.412891   -0.490462
C       0.060511   -0.084653    0.152050
H      -0.427718    1.916792    1.006021
H      -0.649162    1.796659   -0.730417
H       1.474497    2.992071   -0.640777
H       2.007937    2.073659    0.777298
H       0.845591    0.699453   -2.700695
H       2.085162   -1.678582   -2.441969
H       4.230343   -0.162365   -0.945825
H       0.076576   -0.450321    1.182435
H      -0.799050   -0.542419   -0.343603
