17

C       0.053079    1.513224    0.016563
O       1.199573    0.651311   -0.006656
C      -0.091678    0.057957    0.027012
C      -0.481815   -0.823228    1.223357
C      -1.095442   -2.013508    0.456256
O      -2.375919   -1.628846   -0.044132
C      -2.080347   -0.810623   -1.189287
C      -0.538343   -0.785996   -1.166323
O      -0.274124   -2.119166   -0.692611
H      -0.091440    2.076867    0.937201
H      -0.124567    2.076305   -0.899824
H       0.411379   -1.120699    1.779060
H      -1.197499   -0.356279    1.902008
H      -1.172362   -2.966680    0.976897
H      -2.467779   -1.288799   -2.095312
H      -2.532293    0.180540   -1.076914
H      -0.026747   -0.589392   -2.106069
