18

O       0.243751    1.063769    0.630816
C       0.004931   -0.181436    0.026667
C      -1.494734   -0.461026   -0.120802
C      -1.649616   -1.825839   -0.824849
N      -1.514867   -1.138051   -2.157982
C      -1.998762    0.118597   -1.463171
C      -0.084155   -0.982690   -2.459057
C       0.666710   -0.213730   -1.366222
O       1.666732    0.437325   -1.569705
H       1.071089    1.386581    0.243128
H       0.457634   -0.998856    0.620667
H      -2.034904   -0.253552    0.806089
H      -0.904960   -2.604570   -0.625035
H      -2.651031   -2.254591   -0.727557
H      -3.087792    0.177300   -1.533293
H      -1.562549    1.056608   -1.820817
H       0.367211   -1.972807   -2.598180
H       0.051076   -0.435179   -3.397858
