13

N       0.026174    1.387531    0.158183
C      -0.035988    0.028234    0.061789
C      -1.190709   -0.700832    0.036738
O      -2.404932   -0.097799    0.046839
C      -1.130598   -2.122579   -0.010201
O      -2.147997   -2.822766   -0.043773
C       0.244303   -2.632126   -0.022813
N       1.328973   -1.934899   -0.005126
O       1.179882   -0.553465    0.036744
H       0.878933    1.820420   -0.162662
H      -0.826959    1.872068   -0.075996
H      -3.033223   -0.842177    0.009530
H       0.406144   -3.705987   -0.055056
