17

O      -0.112674    1.428804    0.032837
C       0.010479    0.013051   -0.030149
C       0.920339   -0.472007    1.106065
N       1.223260   -1.880231    1.226055
C       0.542535   -2.832753    0.751359
N      -0.645687   -2.896487    0.013398
C      -1.605481   -1.959046   -0.358846
O      -2.566112   -2.329034   -0.999520
C      -1.415746   -0.524202    0.076336
H       0.768980    1.810357   -0.034287
H       0.440161   -0.291141   -0.998744
H       1.883910    0.049873    1.017083
H       0.487218   -0.124885    2.055192
H       0.917824   -3.844142    0.924356
H      -0.908290   -3.824482   -0.292955
H      -1.765636   -0.424301    1.112097
H      -2.078709    0.076791   -0.547593
