17

O      -0.435605    0.223839    0.315864
C       0.450467    0.617409   -0.398402
C       1.406092    1.740641   -0.038709
C       1.420551    2.816950   -1.119310
C       2.570194    3.839464   -1.315050
C       3.364957    2.663173   -1.916924
N       1.964280    2.442732   -2.525326
C       1.993949    3.968226   -2.742309
H       0.629059    0.169819   -1.400103
H       1.088494    2.170759    0.916245
H       2.396848    1.294381    0.107489
H       0.414802    3.245442   -1.201306
H       2.909519    4.627730   -0.633878
H       4.123809    2.895496   -2.668310
H       3.709793    1.858278   -1.267258
H       1.001931    4.411656   -2.864051
H       2.671325    4.275815   -3.542606
