13

O       0.095694   -0.135485    0.278107
C       0.097997    0.916577   -0.296644
C       1.176093    1.976429   -0.072452
N       1.240128    2.944988   -1.136401
N       1.635378    2.617037   -2.398965
N       1.596337    3.664071   -3.116237
N       1.173802    4.691387   -2.334032
C       0.924261    4.296177   -1.031707
O       0.543977    4.920720   -0.068317
H      -0.693398    1.207698   -1.021741
H       0.927223    2.541051    0.834241
H       2.141576    1.486360    0.077763
H       1.082004    5.617267   -2.716810
