17

N       0.099919    1.346773    0.085943
C       0.000994   -0.014463   -0.005490
C      -1.124349   -0.771228    0.034716
C      -0.794116   -2.192648    0.000732
O      -1.558723   -3.134494    0.000517
C       0.742819   -2.305527   -0.053763
C       1.231394   -0.866538   -0.060573
C       2.476157   -0.394726   -0.730259
N       2.424260   -0.502730    0.732007
H       0.902986    1.793102   -0.329077
H      -0.751846    1.876595   -0.015290
H      -2.141211   -0.403123    0.079268
H       1.115980   -2.845809    0.820266
H       1.040857   -2.867659   -0.943596
H       3.113468   -1.124338   -1.222474
H       2.492470    0.588581   -1.197405
H       2.294191    0.414454    1.154521
