20

C      -0.043409    1.568150   -0.073054
C       0.055681    0.046694   -0.075152
C       0.727725   -0.501364    1.188196
C       0.964239   -1.996141    1.143475
O       1.986516   -2.532829    1.486734
O      -1.264826   -0.543637   -0.100497
C      -1.884290   -0.671626   -1.296006
C      -3.230359   -1.323142   -1.106169
N      -1.339949   -0.277904   -2.373063
H       0.956808    2.010356   -0.032872
H      -0.535373    1.911401   -0.984722
H      -0.610456    1.916171    0.796327
H       0.587204   -0.282247   -0.973141
H       1.684352   -0.003126    1.365950
H       0.071216   -0.291157    2.044637
H       0.101599   -2.589174    0.768317
H      -3.842488   -0.728238   -0.421598
H      -3.753668   -1.425010   -2.057954
H      -3.110488   -2.312734   -0.654608
H      -1.942502   -0.468107   -3.169848
