20

C      -0.011640    1.483329    0.528600
C      -0.040216    0.009797    0.195309
C      -1.297638   -0.824633    0.012401
C      -2.339255   -0.053797   -0.793073
O      -1.363911    0.280062   -1.818545
C      -0.382600   -0.529450   -1.158591
N       1.269331    2.064413    0.128140
C       1.340152    2.512020   -1.262668
C       1.253961    3.497118   -0.150132
H      -0.858467    1.997577    0.046592
H      -0.120687    1.620295    1.611410
H       0.754252   -0.561221    0.671591
H      -1.478227   -1.744272    0.552265
H      -3.119465   -0.699971   -1.210683
H      -2.799321    0.834374   -0.344731
H       0.252949   -1.152363   -1.777538
H       2.286774    2.335446   -1.765742
H       0.456137    2.369759   -1.880766
H       0.312048    4.030305   -0.028582
H       2.132618    4.050353    0.169420
