15

C      -0.013987    1.405900    0.017750
O       0.006796   -0.014536   -0.006994
C       0.599280   -0.614679   -1.046225
C       0.746082   -1.971910   -1.294120
C       0.266759   -3.049432   -0.441050
O       0.394007   -4.234543   -0.655754
N       1.426725   -2.143148   -2.491790
C       1.676476   -0.952091   -2.941320
N       1.192431    0.034243   -2.096261
H       1.002700    1.818787    0.042510
H      -0.559815    1.811371   -0.843884
H      -0.534627    1.686479    0.933159
H      -0.253407   -2.682023    0.472427
H       2.194324   -0.702642   -3.855537
H       1.263938    1.028350   -2.231851
