18

C      -0.045522    1.421115    0.247822
C       1.280530    0.790121   -0.004006
O       1.692546    0.033078    1.176391
C       0.620143   -0.820625    0.960203
N       0.408078   -1.965443    1.420067
C      -0.717563   -2.655869    0.763138
C      -1.603306   -1.822358   -0.199325
C      -0.795167   -0.868447   -1.114892
C       0.025676   -0.048996   -0.157753
H      -0.317490    1.719776    1.256561
H      -0.407429    2.073456   -0.543347
H       2.062122    1.100527   -0.684165
H      -0.283636   -3.507501    0.221491
H      -1.352210   -3.091571    1.542798
H      -2.209007   -2.509493   -0.799212
H      -2.301033   -1.215785    0.390573
H      -0.149051   -1.445837   -1.787412
H      -1.461134   -0.262558   -1.735637
