18

C      -0.330772    1.569796   -0.046519
C       0.071543    0.087442   -0.000527
C      -1.189291   -0.805923    0.039704
N       0.808926   -0.224167   -1.230566
C       1.941737   -0.776363   -1.189930
O       2.667153   -1.206875   -0.129841
C       2.024798   -1.181271    1.146637
C       0.873022   -0.189953    1.271011
O       0.602254    0.281847    2.349503
H       0.553878    2.207492   -0.127979
H      -0.961133    1.747898   -0.920971
H      -0.872362    1.842472    0.861326
H      -1.751040   -0.664987   -0.887408
H      -0.924924   -1.865489    0.114682
H      -1.819558   -0.539291    0.891881
H       2.498540   -0.967271   -2.105551
H       1.631159   -2.185582    1.362898
H       2.782244   -0.945780    1.896476
