21

C      -0.293251    1.617882   -0.189952
C      -0.084181    0.112427   -0.113389
C       1.107377   -0.557058   -0.840628
C       2.111142   -0.266625    0.330905
C       3.166457    0.778206    0.515911
O       2.541846   -1.662193    0.449036
C       1.112950   -1.754185    0.167601
C       0.477616   -3.103635    0.073060
C       0.733784   -0.513134    1.042671
H       0.630603    2.177599   -0.019360
H      -0.678630    1.908296   -1.173760
H      -1.022764    1.948579    0.557837
H      -1.036115   -0.403931   -0.290176
H       1.343680   -0.603827   -1.905545
H       2.757738    1.785982    0.411574
H       3.613988    0.686480    1.510681
H       3.958664    0.646275   -0.227908
H       0.598324   -3.650797    1.013226
H      -0.592286   -3.010121   -0.138183
H       0.938793   -3.689548   -0.728114
H       0.545516   -0.509932    2.118133
