21

C      -0.197415    1.579884   -0.033586
C       0.122168    0.086431    0.059465
N       0.807598   -0.362131   -1.143146
C       1.854822   -1.056045   -1.048016
N       2.563740   -1.585349   -2.120509
C       3.912230   -1.942457   -1.696645
C       4.944437   -0.825827   -1.887905
C       3.612874   -2.256263   -0.217477
O       2.487929   -1.434196    0.111202
H       0.722287    2.171973   -0.082493
H      -0.779847    1.791433   -0.935225
H      -0.771718    1.910465    0.838356
H       0.694766   -0.115968    0.974474
H      -0.821187   -0.471311    0.147368
H       2.427344   -1.106700   -2.997982
H       4.246551   -2.846304   -2.217208
H       4.665317    0.065531   -1.316750
H       5.935660   -1.153252   -1.556484
H       5.021974   -0.544560   -2.943236
H       3.342900   -3.309270   -0.076650
H       4.437071   -2.001529    0.453020
