18

C       0.266124    1.308799    0.292487
O      -0.091698   -0.024855   -0.041148
C       0.524526   -0.535508   -1.203989
C       1.992344   -0.625257   -1.041086
N       3.139723   -0.669737   -0.914323
C      -0.096037   -1.923684   -1.451457
O       0.013442   -2.727688   -0.288497
C      -1.565195   -1.830008   -1.885781
O      -2.110001   -3.122181   -2.021720
H       1.339076    1.395142    0.503764
H       0.002349    2.001839   -0.518270
H      -0.301773    1.568676    1.187181
H       0.325545    0.116018   -2.070272
H       0.473642   -2.436133   -2.233117
H      -0.233866   -2.165812    0.458353
H      -2.120723   -1.222170   -1.154114
H      -1.642904   -1.337446   -2.861915
H      -1.819220   -3.610491   -1.240379
