18

C       0.004970    1.550696    0.031673
C      -0.024796    0.042032    0.052449
C       1.250885   -0.753042   -0.232788
C       0.630240   -0.791404    1.140403
O       1.281065   -0.144518    2.193851
C      -0.308441   -1.952192    1.477241
C      -1.430377   -1.796713    0.473571
C      -1.279283   -0.703939   -0.278486
H       0.923743    1.921575    0.493396
H      -0.044774    1.937555   -0.992546
H      -0.839482    1.969009    0.590069
H       1.193954   -1.623535   -0.879107
H       2.165632   -0.172850   -0.314931
H       2.103242   -0.613395    2.371477
H       0.184470   -2.930676    1.407544
H      -0.667512   -1.850818    2.510375
H      -2.244344   -2.508053    0.393217
H      -1.959682   -0.375733   -1.057175
