16

N      -0.124677    1.303435   -0.047128
C      -0.120323    0.054328   -0.207583
O      -1.123833   -0.690963    0.326469
C      -1.013024   -2.065064    0.178385
C      -1.131214   -2.801957   -1.125832
C      -2.137766   -3.052347   -0.017576
C      -1.522774   -3.927449    1.123081
O      -0.167951   -4.273646    0.786442
C      -0.438355   -2.975338    1.324322
H       0.680395    1.716262   -0.513744
H       0.615686   -0.546015   -0.755724
H      -1.527442   -2.196239   -1.934791
H      -0.414895   -3.562503   -1.409408
H      -3.194459   -2.854868   -0.130528
H      -2.051601   -4.575290    1.810333
H       0.099851   -2.648294    2.205913
