17

N      -0.054716    1.246591    0.317635
C       0.016511    0.013236    0.028469
N       1.148804   -0.771047   -0.211893
C       0.904701   -2.090719   -0.581285
O       1.758004   -2.908015   -0.824262
C      -0.607601   -2.269331   -0.594957
C      -1.181288   -2.984543    0.666295
C      -1.621907   -1.604679    1.234519
C      -1.172360   -0.912179   -0.096509
H       0.868248    1.680781    0.378364
H       2.094186   -0.421581   -0.147370
H      -0.926113   -2.661718   -1.561606
H      -2.018077   -3.643446    0.427119
H      -0.456203   -3.551234    1.254044
H      -2.686866   -1.508722    1.450779
H      -1.064002   -1.268678    2.110968
H      -1.976256   -0.445755   -0.663639
