18

C      -0.014349    1.532487    0.059218
C      -0.005827    0.038169   -0.065030
C      -0.085834   -0.648867   -1.239003
C      -0.066663   -2.072380   -1.212387
C       0.029204   -2.785199   -0.052800
C       0.052593   -4.283028    0.017402
C       0.116381   -2.076805    1.218504
O       0.205849   -2.592682    2.324155
N       0.090204   -0.678177    1.096677
H       0.903907    1.896465    0.535373
H      -0.095423    1.997795   -0.924371
H      -0.857679    1.875189    0.670552
H      -0.162737   -0.111704   -2.174890
H      -0.131195   -2.608262   -2.156097
H       0.970409   -4.635616    0.500647
H      -0.773563   -4.656644    0.632305
H      -0.017208   -4.729172   -0.977931
H       0.151154   -0.194881    1.983199
