22

C      -0.053813    1.628426   -0.007269
C       0.049388    0.116279   -0.036029
C       0.652461   -0.610884   -1.258351
O       1.762877    0.130352   -1.750969
C       2.838440    0.259320   -0.814127
C       2.377834    0.136231    0.669643
N       1.104512   -0.592631    0.811771
C       1.106525   -1.687656   -0.242484
C       0.146432   -2.827343    0.062211
H       0.806334    2.115379   -0.471519
H      -0.945944    1.942841   -0.559114
H      -0.155311    1.991468    1.021004
H      -0.917675   -0.310906    0.244522
H       0.038675   -0.869560   -2.126920
H       3.594966   -0.505284   -1.036909
H       3.302342    1.232970   -1.002725
H       3.147536   -0.394842    1.241433
H       2.261223    1.120786    1.130533
H       2.102198   -2.103200   -0.425023
H      -0.881137   -2.486121    0.212809
H       0.143034   -3.549692   -0.761107
H       0.460937   -3.346736    0.972362
