16

N      -0.008647   -1.230849   -0.019104
C      -0.028766   -0.077945   -0.085321
C      -0.059882    1.386743   -0.140931
N       1.294885    1.935432   -0.040066
C       1.876944    1.967753    1.338989
C       2.724335    3.232349    0.992088
N       2.284703    4.049484    2.166304
C       1.073769    3.240309    1.821528
C       1.353237    3.394774    0.283550
H      -0.487400    1.689263   -1.104003
H      -0.750776    1.739327    0.644517
H       2.162672    1.069245    1.888296
H       3.715613    3.277845    0.544068
H       2.713681    3.694541    3.024767
H       0.139917    3.319848    2.378301
H       1.029200    4.181591   -0.397231
