19

C       0.455201    1.108377    0.428304
O      -0.335100    0.334527   -0.448386
C       0.409326   -0.377699   -1.387254
C       1.270598   -1.559059   -0.897208
O       0.393194   -2.469033   -0.236601
C       0.454266   -2.527584   -1.660497
C      -0.441903   -1.427648   -2.222588
O      -1.793414   -1.587714   -1.949802
C      -2.601659   -0.545554   -2.464174
H       1.124308    0.480581    1.033974
H       1.066789    1.844494   -0.117349
H      -0.227815    1.639252    1.094931
H       0.983508    0.295274   -2.044492
H       2.324056   -1.598097   -0.645254
H       0.731009   -3.473336   -2.110995
H      -0.260330   -1.271987   -3.298495
H      -3.636673   -0.797809   -2.222920
H      -2.348951    0.418988   -2.009032
H      -2.502585   -0.463841   -3.558550
