16

C       0.030803    1.364276   -0.160117
O      -0.006312   -0.033979    0.017002
C      -1.311454   -0.554667   -0.010824
C      -1.199958   -2.068991    0.196744
C      -2.524309   -2.743244    0.130774
N      -3.139904   -3.307267    1.131079
O      -4.298370   -3.771848    0.608130
N      -4.339076   -3.453816   -0.746882
N      -3.280717   -2.840158   -1.029341
H       1.079269    1.668054   -0.124026
H      -0.394574    1.662959   -1.130657
H      -0.520828    1.889994    0.634623
H      -1.932627   -0.108293    0.783946
H      -1.804345   -0.339740   -0.973111
H      -0.547030   -2.478142   -0.580763
H      -0.741849   -2.274768    1.166425
