21

C       0.044001    1.519435    0.065283
C      -0.062369   -0.013121    0.048445
C       0.496517   -0.595247    1.354189
C      -1.515037   -0.486655   -0.206240
C      -2.129492    0.073459   -1.495815
N      -1.592745   -1.947587   -0.228012
C      -2.301581   -2.683528    0.668198
O      -2.924571   -2.240511    1.610551
H       1.064602    1.827198    0.313346
H      -0.208687    1.967980   -0.898780
H      -0.622250    1.948805    0.823156
H       0.553519   -0.385397   -0.785524
H       0.474400   -1.687534    1.354085
H       1.533271   -0.277875    1.504214
H      -0.087687   -0.251488    2.215220
H      -2.133640   -0.189519    0.646591
H      -1.517521   -0.183117   -2.369673
H      -3.129057   -0.342678   -1.647281
H      -2.219356    1.161366   -1.459392
H      -1.136104   -2.438119   -0.982123
H      -2.245768   -3.767418    0.440145
