13

O       0.240852    0.942896    0.933588
C      -0.107227    0.215700   -0.215600
C      -1.472236   -0.409293   -0.062945
N      -2.165340   -0.227168    1.059438
C      -3.355844   -0.828274    1.075597
N      -3.881612   -1.564493    0.098005
C      -3.091240   -1.672588   -0.973617
N      -1.889419   -1.126351   -1.116628
H       1.113361    1.320132    0.789240
H      -0.140077    0.840887   -1.123072
H       0.598232   -0.603216   -0.432795
H      -3.954199   -0.703853    1.975945
H      -3.468044   -2.263281   -1.806185
