23

C       0.128937    1.607249    0.025247
C       0.012473    0.080950   -0.009240
C       0.634932   -0.520086   -1.277938
C       0.346853   -2.022421   -1.379658
C       0.751063   -2.783276   -0.128807
C       0.446721   -4.263647   -0.122982
O       2.046242   -2.432071    0.385028
C       0.886566   -2.043924    1.141787
C       0.630839   -0.551509    1.253564
H       1.179824    1.918655   -0.002193
H      -0.376573    2.063991   -0.832200
H      -0.315836    2.021855    0.936519
H      -1.057137   -0.177846   -0.019606
H       0.240564   -0.012054   -2.165331
H       1.718809   -0.356550   -1.268096
H      -0.726082   -2.185830   -1.550475
H       0.867153   -2.457509   -2.242556
H       0.939297   -4.760309   -0.966536
H       0.802810   -4.728037    0.800116
H      -0.630262   -4.442817   -0.212420
H       0.773453   -2.610455    2.067776
H       1.591138   -0.067527    1.476972
H      -0.017848   -0.361394    2.116815
