11

C      -0.001888    1.537481    0.039556
C       0.004645    0.000348    0.006466
O       0.693157   -0.431334    1.161415
C      -1.387292   -0.517643    0.002731
N      -2.467313   -0.924709    0.037652
C       0.687374   -0.482493   -1.220936
N       1.250359   -0.861758   -2.155053
H       1.031040    1.889507    0.045442
H      -0.522594    1.938251   -0.831499
H      -0.504791    1.863458    0.951545
H       0.718259   -1.396401    1.175339
