18

O       0.082068    1.076566    0.857112
C       0.105261   -0.193919    0.215603
C      -1.267523   -0.910176    0.150440
C      -1.333208   -1.578801   -1.245004
C      -0.250503   -0.871139   -2.022287
C       0.534561   -0.132960   -1.239507
C       1.745718    0.681877   -1.610058
C       1.983756    0.767206   -3.048438
N       2.160093    0.824468   -4.188808
H      -0.600521    1.605142    0.427176
H       0.832774   -0.767884    0.805258
H      -1.414583   -1.611251    0.974654
H      -2.050147   -0.147403    0.237516
H      -1.121887   -2.654875   -1.187038
H      -2.318762   -1.488720   -1.715052
H      -0.119778   -0.992996   -3.092112
H       1.646501    1.693684   -1.198224
H       2.642277    0.263189   -1.131067
