19

O       0.130109    0.274582   -1.110332
C       0.074365    1.214543   -0.372582
C      -1.051425    1.833078    0.479050
C      -0.112882    3.051444    0.757516
C       0.344623    3.354992    2.201770
C       1.650670    2.596395    2.419305
C       1.642797    1.099037    2.266043
C       2.087580    1.965200    1.108297
C       1.072070    2.322618    0.026628
H      -1.968803    2.040436   -0.079553
H      -1.319327    1.237132    1.357995
H      -0.465800    3.949763    0.248854
H       0.530422    4.428605    2.313072
H      -0.424018    3.090375    2.937624
H       2.382908    3.031783    3.091045
H       2.417588    0.540841    2.780531
H       0.696332    0.571458    2.215265
H       3.131902    1.922853    0.822920
H       1.548479    2.830223   -0.815985
