23

C       0.019737    1.495799   -0.513764
C      -0.014665    0.051385   -0.056796
C       1.197932   -0.765243   -0.220993
O       0.843270   -0.236596    1.061511
C      -1.397672   -0.581121    0.010382
C      -1.442211   -2.080203    0.365610
C      -2.872856   -2.289433    0.878695
C      -3.127020   -1.043118    1.747787
C      -2.315873    0.098464    1.076824
H       1.040455    1.884764   -0.484047
H      -0.359251    1.586175   -1.537775
H      -0.602846    2.124982    0.130032
H       1.127076   -1.846816   -0.313951
H       2.083326   -0.322439   -0.677005
H      -1.857042   -0.450091   -0.978672
H      -1.191501   -2.725708   -0.481371
H      -0.723762   -2.280443    1.169478
H      -3.570622   -2.311568    0.031902
H      -3.000895   -3.226974    1.427532
H      -4.190163   -0.804855    1.841032
H      -2.751847   -1.220214    2.761135
H      -1.709352    0.626044    1.818508
H      -2.970781    0.842094    0.614296
