23

C      -0.798931    1.227858   -0.011371
C       0.123526    0.010223   -0.017153
C       1.155112   -0.014072   -1.166671
C       2.303615   -0.938543   -0.681030
C       2.010675   -1.230511    0.817185
C       3.248582   -1.313386    1.696983
O       4.018717   -2.422764    1.244563
C       1.003747   -0.151413    1.239189
O       1.737544    1.037189    1.536607
H      -0.223662    2.158471    0.057203
H      -1.384502    1.281110   -0.934692
H      -1.507248    1.198428    0.825056
H      -0.496455   -0.895376   -0.078282
H       0.708720   -0.347499   -2.108013
H       1.530936    1.000629   -1.333132
H       2.357131   -1.867160   -1.253483
H       3.275165   -0.448841   -0.792333
H       1.494257   -2.195255    0.894698
H       3.814273   -0.375115    1.624994
H       2.953071   -1.441267    2.751296
H       4.855775   -2.415887    1.717214
H       0.416572   -0.459262    2.117946
H       1.109734    1.717265    1.797661
