19

C      -0.227844    1.509738   -0.037847
C       0.092485    0.020684    0.017600
N       0.964774   -0.366787   -1.098063
C       1.137413   -1.790653   -1.160291
C       2.521913   -2.346846   -0.882897
C       1.457801   -2.380175    0.179137
O       1.563412   -1.503734    1.276322
C       0.808958   -0.359794    1.305874
N       0.735989    0.345501    2.351983
H       0.694587    2.095590   -0.043021
H      -0.796835    1.737772   -0.946082
H      -0.815813    1.804446    0.831247
H      -0.858548   -0.546319    0.002354
H       0.631550    0.016219   -1.973277
H       0.470646   -2.362363   -1.806894
H       2.813766   -3.288261   -1.334925
H       3.307775   -1.611208   -0.761293
H       1.028529   -3.334738    0.466460
H       1.270382   -0.089297    3.107022
