16

O       0.008325   -0.150802   -0.142755
C       0.024790    1.050277   -0.130287
C       1.294736    1.894584   -0.076381
C       1.317974    2.912030   -1.192773
C       1.828923    2.587127   -2.450920
C       1.796757    3.541401   -3.462715
N       1.294909    4.770537   -3.311602
C       0.802538    5.074644   -2.108588
C       0.790635    4.193675   -1.030618
H      -0.915023    1.646473   -0.161062
H       1.302045    2.407082    0.894457
H       2.152571    1.219362   -0.119232
H       2.249884    1.605017   -2.640543
H       2.196479    3.305173   -4.446103
H       0.398770    6.078163   -1.995429
H       0.383834    4.510645   -0.075391
