15

O       0.096637    1.359632   -0.379919
C       0.023182    0.133724    0.310378
C      -1.361784   -0.485592    0.175469
N      -1.657794   -0.981649   -1.182809
C      -1.556853   -1.963292   -0.085475
C      -0.459755   -2.890044   -0.097625
C       0.433468   -3.693704   -0.084103
C      -2.426790    0.179188    0.892755
N      -3.286057    0.706296    1.459677
H      -0.062602    1.166075   -1.311339
H       0.758255   -0.595878   -0.051650
H       0.237320    0.347561    1.361172
H      -2.635409   -0.827548   -1.419294
H      -2.489971   -2.371841    0.295604
H       1.227362   -4.399809   -0.078099
