25

C       0.209228    1.657876    0.245828
C       0.094428    0.141553    0.021044
C       0.566528   -0.632026    1.263811
C      -1.353800   -0.233636   -0.310479
O       0.820321   -0.269187   -1.147912
C       2.205999    0.009694   -1.214598
C       2.759396   -0.659283   -2.445045
C       2.650845    0.019450   -3.784406
C       3.993002   -0.097494   -3.105746
H       1.223947    1.954031    0.527705
H      -0.069203    2.199883   -0.663222
H      -0.460413    1.974111    1.051627
H      -0.085293   -0.416379    2.116267
H       0.537481   -1.708816    1.072456
H       1.585182   -0.361053    1.556183
H      -1.685915    0.298580   -1.206211
H      -1.429423   -1.306966   -0.505929
H      -2.023658    0.019466    0.516620
H       2.393294    1.093986   -1.274047
H       2.731558   -0.361332   -0.321393
H       2.657239   -1.740533   -2.441221
H       2.458828   -0.593570   -4.657799
H       2.180271    0.996589   -3.816073
H       4.429878    0.803083   -2.685892
H       4.720257   -0.792863   -3.509603
