18

C      -0.321837    1.103096    0.093260
N      -0.121895   -0.341046    0.095823
C       0.702348   -0.862786    1.099115
C       1.183639   -2.148661    1.193598
N       1.895332   -2.190499    2.382336
C       1.815058   -0.952403    2.935277
N       1.101004   -0.131975    2.190268
O       1.087641   -3.229228    0.380194
C      -0.216695   -3.822909    0.351244
H       0.608917    1.679940   -0.012869
H      -0.995459    1.359806   -0.728713
H      -0.787375    1.405467    1.033552
H       0.144358   -0.691406   -0.815183
H       2.409139   -2.986369    2.721170
H       2.297686   -0.698617    3.866453
H      -0.483757   -4.230756    1.333794
H      -0.971760   -3.088157    0.051340
H      -0.173914   -4.631655   -0.381310
