18

C      -0.007721    1.543285   -0.002555
C       0.003891    0.038593   -0.029042
C       0.625577   -0.785893   -1.196088
C       1.173663   -1.773161   -0.198058
C       0.749017   -0.860269    0.982138
O      -0.454124   -1.264052    1.657898
C      -1.213602   -0.811043    0.497566
C      -1.309899   -1.977504   -0.475088
N       0.035595   -2.106575   -1.072608
H       0.989479    1.949316   -0.204734
H      -0.688865    1.947298   -0.760738
H      -0.330206    1.918624    0.973982
H       1.010913   -0.428083   -2.143936
H       2.040402   -2.422926   -0.244137
H       1.546743   -0.519448    1.646071
H      -2.150546   -0.325427    0.782068
H      -1.596162   -2.899516    0.036983
H      -2.017562   -1.783007   -1.289366
