18

O      -0.025940    1.430784    0.088590
C       0.034706    0.033639   -0.007736
C       0.321643   -0.642759   -1.374199
N      -0.785229   -1.623169   -1.113522
C      -0.478118   -2.618919   -0.055961
C       0.184750   -2.033286    1.187197
C       0.858049   -0.676061    1.081235
C      -1.302919   -1.891018    0.987354
C      -1.341174   -0.731333   -0.021927
H       0.870804    1.772498    0.171183
H       0.051254   -0.010366   -2.225406
H       1.314013   -1.077804   -1.533003
H      -0.416911   -3.674847   -0.294861
H       0.537621   -2.758665    1.912930
H       1.920622   -0.728518    0.815871
H       0.763506   -0.134136    2.030877
H      -2.082838   -2.239217    1.649833
H      -2.249716   -0.170482   -0.238994
