21

C       0.046723    1.527537    0.002031
C      -0.008436    0.029011    0.096800
C       1.160032   -0.868203   -0.216961
C       0.522642   -0.960268    1.151623
C       1.298819   -0.730717    2.413453
O       2.010691   -1.886972    2.840158
C      -0.751534   -1.807895    1.027376
C      -1.302553   -0.803466   -0.036935
O      -2.492050   -0.136527    0.321839
H       0.986226    1.920185    0.403523
H      -0.031492    1.855847   -1.041204
H      -0.778601    1.992553    0.550606
H       1.058975   -1.686588   -0.928079
H       2.122920   -0.364839   -0.256997
H       1.976108    0.129455    2.280837
H       0.625440   -0.486890    3.243586
H       2.548623   -2.178540    2.096198
H      -0.622050   -2.851736    0.723886
H      -1.373275   -1.785552    1.928291
H      -1.491963   -1.209625   -1.036154
H      -2.402680    0.169431    1.231335
