14

O      -0.002892    0.034409    0.066673
C       0.020922    1.235037   -0.024900
N      -1.061458    2.115984   -0.125869
C      -0.417603    3.442687    0.023242
C       0.720964    3.298965   -1.019794
C       1.203909    2.218083    0.002418
C       0.667437    3.194892    1.114472
H      -1.913583    1.892568    0.368243
H      -1.120356    4.273585    0.036161
H       0.439088    2.974058   -2.023053
H       1.384976    4.164856   -1.054120
H       2.199097    1.781956    0.007132
H       1.330468    4.046993    1.281764
H       0.342757    2.763704    2.064981
