19

C      -0.036866    1.539386   -0.012760
C       0.007336    0.027786    0.026432
C      -1.225665   -0.677039    0.660509
C      -1.158655   -2.175725    0.582974
C      -0.309345   -1.465820    1.601085
C       0.940832   -0.800580    0.977814
C       1.631992   -1.483268   -0.237000
C       0.663295   -0.710002   -1.167908
O       0.519877   -0.660407   -2.354916
H       0.941788    1.963992   -0.259472
H      -0.749694    1.880877   -0.771427
H      -0.350802    1.945648    0.954933
H      -2.152719   -0.156612    0.871612
H      -2.023470   -2.683701    0.998528
H      -0.732315   -2.687350   -0.274527
H      -0.429032   -1.656574    2.660679
H       1.588035   -0.283009    1.684526
H       2.665797   -1.154457   -0.388977
H       1.606288   -2.573838   -0.308198
