15

O      -0.089672    1.338979    0.231210
C      -0.053444   -0.043203   -0.075786
C       0.586314   -0.895619    1.038555
O      -0.421678   -1.045988    2.040443
C      -1.650741   -1.149462    1.372809
C      -1.508488   -0.502109   -0.023289
O      -1.724514   -1.796191   -0.665346
C      -1.870109   -2.448852    0.544150
O      -2.073757   -3.602669    0.722863
H       0.809729    1.643941    0.385134
H       0.401906   -0.241045   -1.055105
H       0.892609   -1.874064    0.640393
H       1.453484   -0.420659    1.504746
H      -2.462126   -0.867347    2.042955
H      -2.219898    0.246081   -0.367254
