15

O       0.112788   -0.062816    0.001638
C      -0.005282    1.130267    0.009404
C      -1.173281    2.147903    0.031650
C      -0.070008    3.241281    0.021094
C      -0.045595    4.387916   -1.011757
O      -0.153055    5.374104    0.033211
C      -0.015234    4.377306    1.064456
N       0.907782    2.163698    0.001286
H      -1.813218    2.119592   -0.852251
H      -1.787124    2.110501    0.933537
H       0.898296    4.471522   -1.567992
H      -0.883737    4.433878   -1.716943
H      -0.832390    4.415932    1.794281
H       0.944530    4.455366    1.593680
H       1.917773    2.169010   -0.013367
