22

C      -0.290505    1.361375   -1.282717
C       0.239964   -0.000154   -0.876678
O       1.627366   -0.186007   -1.251191
C       2.013808   -0.596754    0.087800
C       3.195769    0.185341    0.621686
C       0.606718   -0.275598    0.588384
C       0.144718    0.422286    1.812888
N      -0.107149   -1.007075    1.608439
C      -1.481430   -1.400819    1.328681
H       0.285799    2.161902   -0.810396
H      -0.221565    1.480135   -2.368897
H      -1.342458    1.470069   -0.996886
H      -0.384092   -0.794717   -1.313944
H       2.220763   -1.676330    0.116695
H       2.980910    1.257907    0.635021
H       3.439419   -0.139122    1.639165
H       4.075312    0.017039   -0.007605
H       0.840413    0.673402    2.609579
H      -0.695251    1.109391    1.708307
H      -2.047219   -0.659083    0.740919
H      -1.483809   -2.347387    0.778809
H      -2.007378   -1.556955    2.275421
