21

C      -0.144843    1.590259    0.010386
C      -0.000277    0.066074    0.016911
C       0.705780   -0.471760   -1.231072
C       0.850653   -2.007051   -1.216884
C       1.523384   -2.532569   -2.399837
C       2.080531   -2.940159   -3.385444
C       2.759939   -3.441290   -4.582310
C       2.649478   -4.891333   -4.757687
C       2.567100   -6.078951   -4.913060
H       0.834047    2.079762   -0.038952
H      -0.726837    1.928821   -0.853908
H      -0.650619    1.947115    0.912891
H       0.555742   -0.246026    0.911080
H      -0.992586   -0.396933    0.100423
H       0.152678   -0.174509   -2.130262
H       1.701561   -0.020803   -1.319884
H       1.401543   -2.310942   -0.316557
H      -0.144107   -2.464242   -1.128796
H       2.355915   -2.940406   -5.473224
H       3.822894   -3.164298   -4.547319
H       2.490792   -7.129663   -5.044904
