18

C       1.287053    1.193765    0.656955
O       0.192963    0.377819    0.286622
C       0.024892   -0.770236    1.096528
C      -1.411135   -1.259871    0.901845
C       1.032452   -1.822339    0.731024
C       1.765113   -2.100800   -0.375212
N       2.523103   -3.247545   -0.153165
C       2.214509   -3.598414    1.049642
O       1.317884   -2.787360    1.663360
H       2.244120    0.659895    0.584730
H       1.299754    2.040476   -0.033000
H       1.173670    1.572715    1.683995
H       0.171948   -0.511962    2.158844
H      -1.587961   -1.482824   -0.153695
H      -1.585848   -2.167121    1.486428
H      -2.115014   -0.487550    1.222486
H       1.803432   -1.562019   -1.307521
H       2.574766   -4.440148    1.619834
