21

O       0.083654    1.411349    0.052802
C       0.038325   -0.006189   -0.006338
C      -1.385792   -0.576727   -0.160551
C      -1.695441   -0.349122   -1.670146
C      -0.307751   -0.222750   -2.375222
C       0.706910   -0.598490   -1.264135
C       0.769379   -2.103743   -1.102457
C      -0.176034   -2.770550   -0.438820
C      -1.355108   -2.076856    0.199479
H      -0.395844    1.766978   -0.702003
H       0.526892   -0.343839    0.911567
H      -2.094297   -0.052103    0.486182
H      -2.282502   -1.175795   -2.079028
H      -2.294352    0.554998   -1.818298
H      -0.222308   -0.873598   -3.248403
H      -0.130496    0.800451   -2.727246
H       1.699312   -0.176292   -1.440570
H       1.598939   -2.633043   -1.563761
H      -0.118491   -3.851764   -0.337896
H      -1.313079   -2.203516    1.291277
H      -2.291894   -2.558087   -0.114685
