17

O       0.337482    1.314576    0.263604
C       0.080800   -0.028399    0.047351
C      -0.468390   -0.860884    1.170496
O      -0.951670   -0.049814    2.220419
C      -2.333794    0.233340    1.979661
C      -2.538637    0.211347    0.432648
C      -2.692316    1.534892   -0.165480
C      -2.883137    2.620030   -0.645212
C      -1.328620   -0.607776   -0.047084
H       0.077327    1.494025    1.178624
H       0.810126   -0.482263   -0.617761
H      -0.080079   -1.827011    1.477599
H      -2.956763   -0.540041    2.449002
H      -2.564174    1.201034    2.429132
H      -3.445404   -0.362210    0.209245
H      -3.016881    3.580362   -1.077955
H      -1.504985   -1.384038   -0.781935
