18

N       0.006864   -1.146506   -0.082109
C      -0.007520    0.007599   -0.025481
C      -0.000325    1.466143    0.047825
C       1.426154    2.048377    0.077862
C       1.406842    3.572203    0.134700
C       2.800404    4.230157    0.065152
O       2.576634    5.392647   -0.715272
C       1.616371    5.001886   -1.658917
O       0.725481    4.115356   -1.002152
H      -0.537415    1.871995   -0.815182
H      -0.556516    1.773245    0.941474
H       1.967308    1.659151    0.948065
H       1.969884    1.723849   -0.815630
H       0.871385    3.902947    1.036086
H       3.192370    4.534119    1.037256
H       3.525838    3.559752   -0.422735
H       1.071605    5.886853   -2.000764
H       2.089010    4.490893   -2.516982
