22

C       0.487911    0.003477    1.514365
C       0.056749   -0.150127    0.052252
C      -1.353603   -0.697462   -0.111977
C      -1.702007   -1.465478   -1.358635
C      -1.587369   -2.187710   -0.037742
N      -2.403378    0.118331    0.446884
C      -2.811559    1.295164   -0.124751
C      -3.847606    2.072469    0.676627
O      -2.379444    1.695016   -1.189543
H       1.500745    0.411208    1.583993
H      -0.178738    0.684730    2.053470
H       0.477314   -0.959272    2.037611
H       0.106909    0.816056   -0.461471
H       0.750663   -0.819946   -0.468869
H      -2.691337   -1.317076   -1.772630
H      -0.920238   -1.605793   -2.096429
H      -0.725062   -2.822576    0.135235
H      -2.502948   -2.537928    0.427037
H      -2.725262   -0.099463    1.376111
H      -4.337387    1.477926    1.452663
H      -3.361739    2.931697    1.149867
H      -4.600816    2.460020   -0.011958
