20

C       0.185961    1.584490    0.269836
C      -0.022164    0.080520    0.055184
C       0.567135   -0.472284   -1.244590
O       1.947616   -0.119003   -1.425123
C       0.508477   -1.999863   -1.377386
N       0.553091   -2.311689   -2.818314
C      -0.241187   -1.256020   -3.455149
C      -0.142985   -0.021316   -2.549399
O      -0.492251    1.101651   -2.816346
H       1.251953    1.826795    0.336922
H      -0.251690    2.164344   -0.545527
H      -0.275882    1.903066    1.208705
H       0.427675   -0.474762    0.888412
H      -1.094579   -0.151635    0.069990
H       1.986243    0.832310   -1.579275
H       1.335343   -2.479540   -0.849642
H      -0.434057   -2.373091   -0.957018
H       1.517049   -2.202524   -3.118845
H       0.082018   -1.038043   -4.475628
H      -1.299605   -1.552190   -3.506970
