20

N      -0.523326    0.840590    0.810841
C      -0.219537   -0.219155    0.195884
C      -1.047951   -0.901781   -0.871310
C      -0.475973   -2.332446   -0.905982
C       0.982536   -2.062805   -0.488454
O       0.928758   -0.935762    0.402523
C      -1.183730   -3.264883    0.057025
C      -2.410230   -4.022731   -0.379462
C      -1.113834   -4.758363   -0.135609
H       0.217046    1.095767    1.467182
H      -2.112195   -0.851334   -0.639942
H      -0.887898   -0.386936   -1.825497
H      -0.513861   -2.761016   -1.912270
H       1.440084   -2.895564    0.050731
H       1.614014   -1.806438   -1.348643
H      -1.182146   -2.918725    1.088200
H      -3.219632   -4.151958    0.330078
H      -2.737886   -3.907298   -1.407890
H      -0.578443   -5.135055   -1.001679
H      -1.035607   -5.391239    0.741227
