21

C      -0.110369    1.570091    0.074781
C       0.034894    0.049653    0.029418
C      -1.318896   -0.616893   -0.224320
C       1.141664   -0.527443   -0.928078
C       1.791302   -1.257442    0.263679
C       2.200047   -0.237548    1.304248
C       0.756005   -0.618064    1.219416
C       2.302527   -2.584442    0.235830
C       2.726906   -3.710574    0.188031
H       0.843240    2.068981    0.271229
H      -0.492880    1.950894   -0.879201
H      -0.813753    1.873026    0.858893
H      -1.745288   -0.286925   -1.178203
H      -1.223357   -1.707152   -0.254319
H      -2.033727   -0.364171    0.567478
H       0.734536   -1.206973   -1.678943
H       1.788114    0.203151   -1.425191
H       2.737221   -0.644383    2.154065
H       2.546347    0.741445    0.982275
H       0.249234   -1.097542    2.049783
H       3.104529   -4.701820    0.151038
