15

O       0.156315    1.361698    0.066304
C       0.041103   -0.012523    0.029655
C      -0.462675   -0.728863    1.241406
O      -0.879103    0.080304    2.301223
C      -1.358428   -0.685733   -0.000784
C      -2.522193    0.127854   -0.017546
C      -3.514652    0.819546   -0.059676
C      -4.678070    1.659241   -0.077725
O      -5.693838    1.421804   -0.693634
H      -0.379065    1.669733    0.810842
H       0.802723   -0.463548   -0.596756
H      -0.064164   -1.703577    1.516763
H      -0.110618    0.255788    2.857017
H      -1.421725   -1.617765   -0.554606
H      -4.578360    2.577745    0.537230
