21

C      -0.044662    1.553167   -0.134647
C       0.064044    0.035238   -0.014408
C       0.885760   -0.645968   -1.140112
C       1.360113   -1.974564   -0.557953
C       2.582808   -1.987116    0.287846
C       1.236489   -1.865627    0.984354
C       0.717863   -0.466776    1.298165
C       0.742734   -3.045759    1.722915
O       1.122969   -4.180750    1.544645
H       0.946058    2.021498   -0.096892
H      -0.515355    1.846101   -1.079070
H      -0.643676    1.975886    0.678901
H      -0.946673   -0.393443   -0.051834
H       0.288265   -0.790172   -2.044598
H       1.741259   -0.017421   -1.419836
H       1.058720   -2.907409   -1.020827
H       3.086489   -2.937875    0.425501
H       3.220013   -1.107579    0.299030
H       1.534579    0.199739    1.602588
H       0.001184   -0.483761    2.126928
H      -0.048574   -2.822480    2.475705
