19

C      -0.060832    1.558395    0.033787
C       0.058675    0.053075   -0.001568
C      -0.803923   -0.814129    0.908991
C       0.686311   -0.801116    1.104912
C       1.498117   -1.914810    0.445521
C       1.201928   -1.733989   -1.031040
C       1.685366   -2.636114   -2.071656
O       2.344019   -3.633168   -1.862276
C       0.451081   -0.639832   -1.255995
H       0.866668    2.042560   -0.291007
H      -0.868187    1.909586   -0.619480
H      -0.282485    1.907077    1.046823
H      -1.403585   -0.288847    1.645937
H      -1.275956   -1.696692    0.488976
H       1.074270   -0.326908    1.999229
H       2.572505   -1.813284    0.639845
H       1.216580   -2.913676    0.796893
H       1.409662   -2.336439   -3.108364
H       0.143838   -0.294985   -2.239260
