20

O      -0.316667    0.304545    0.758796
C       0.297215    0.675299   -0.210821
C       1.376099    1.699380   -0.160713
N       2.334718    1.680988   -1.286229
C       1.453271    2.833979   -1.152745
C       0.440485    3.089916   -2.233974
C      -0.788570    3.987009   -1.906625
C      -0.647619    4.626330   -3.314377
C       0.809615    4.094182   -3.366525
H       0.102109    0.263288   -1.224490
H       1.733830    1.910086    0.844345
H       3.271228    1.882584   -0.947512
H       1.884269    3.743973   -0.731220
H       0.119404    2.141023   -2.671181
H      -1.727282    3.488810   -1.653600
H      -0.554147    4.705380   -1.113856
H      -1.286264    4.129142   -4.049932
H      -0.797827    5.704746   -3.399092
H       1.524591    4.844655   -3.011799
H       1.178851    3.681493   -4.307787
