25

C      -0.061196    1.561779   -0.045060
C      -0.047894    0.040071    0.137295
C      -1.434750   -0.590172    0.012860
C      -2.004818   -0.731956   -1.433101
C      -1.333310   -2.136282   -1.487575
C      -1.478933   -2.146625    0.062984
C      -2.894240   -2.592567    0.469514
C      -3.934540   -2.162550   -0.596341
C      -3.535151   -0.868293   -1.350325
H       0.942974    1.984423    0.060264
H      -0.436971    1.843276   -1.034592
H      -0.704835    2.042224    0.700445
H       0.640872   -0.407905   -0.589575
H       0.360112   -0.203027    1.127830
H      -2.111513   -0.092615    0.721327
H      -1.704222    0.012795   -2.175820
H      -1.824340   -2.926481   -2.062238
H      -0.288947   -2.079847   -1.800541
H      -0.707178   -2.652515    0.651485
H      -2.936061   -3.680757    0.596662
H      -3.133123   -2.156003    1.447521
H      -4.026389   -2.970090   -1.329754
H      -4.927117   -2.057664   -0.147423
H      -3.940317    0.018420   -0.846807
H      -3.977656   -0.884477   -2.353366
