21

C      -0.778094    1.176802    0.128884
C       0.181666    0.015630   -0.127345
C       1.309223    0.259403   -1.141550
C       2.440266   -0.725368   -0.766802
C       2.226192   -2.112406   -1.382939
O       3.657338   -0.160917   -1.247058
C       2.369589   -0.766074    0.776892
C       0.918787   -0.446727    1.140475
O       0.429224   -0.529701    2.237708
H      -0.228522    2.083614    0.403160
H      -1.376155    1.400709   -0.759328
H      -1.452959    0.930533    0.952649
H      -0.408636   -0.857635   -0.445252
H       0.993915    0.145747   -2.182107
H       1.705005    1.275055   -1.026581
H       2.235243   -2.045847   -2.474555
H       3.022149   -2.799931   -1.071666
H       1.275686   -2.557035   -1.070317
H       4.361352   -0.803288   -1.107400
H       2.700780   -1.701699    1.236467
H       2.996711    0.040062    1.177830
