19

C       0.097036    1.367475    0.254987
N       0.079047   -0.087429    0.268666
C      -1.011024   -0.665313    0.000600
N      -2.328053   -0.260937   -0.259505
C      -2.855947   -1.628488   -0.373701
C      -2.734915   -2.260610   -1.783273
C      -1.309588   -2.786273   -1.434975
C      -1.381029   -2.138014   -0.027237
O      -0.972897   -2.942324    1.021568
H       0.859981    1.728111    0.951201
H       0.367053    1.745256   -0.740705
H      -0.867085    1.818304    0.536840
H      -2.590915    0.508396   -0.860854
H      -3.742763   -1.827305    0.228976
H      -3.458080   -3.057822   -1.969547
H      -2.794252   -1.541851   -2.604465
H      -1.282902   -3.873439   -1.332669
H      -0.476392   -2.471298   -2.066599
H      -0.563753   -2.374084    1.684563
