14

C      -0.057128    1.445070    0.010247
C      -0.001431   -0.007353    0.002420
C       0.061438   -1.212026   -0.004186
C       0.114977   -2.623945   -0.011795
N       1.197624   -3.387644   -0.022989
C       0.739489   -4.677117   -0.026531
C      -0.633266   -4.709684   -0.017475
N      -1.022055   -3.394952   -0.008114
H       0.951779    1.871317    0.004731
H      -0.585754    1.830450   -0.868937
H      -0.572270    1.821437    0.901261
H       1.421127   -5.514065   -0.035408
H      -1.346074   -5.517322   -0.016833
H      -1.964928   -3.043806    0.000026
