20

C      -0.319498    1.572423    0.062325
C      -0.022787    0.082562    0.044449
C      -1.149648   -0.726121   -0.569965
O       1.236730   -0.161943   -0.723161
C       1.829083   -0.785804    0.324523
O       2.894593   -1.320184    0.367645
C       0.674728   -0.561691    1.309857
C       1.033552    0.379279    2.463084
N       0.113201   -1.829141    1.761256
H       0.550181    2.158953    0.363538
H      -0.618923    1.905004   -0.936123
H      -1.142874    1.790736    0.750096
H      -1.329534   -0.390065   -1.595665
H      -0.915182   -1.790222   -0.570176
H      -2.071216   -0.585689    0.004218
H       1.508068    1.306462    2.134032
H       0.134939    0.641705    3.033564
H       1.729915   -0.130957    3.134998
H       0.869982   -2.478451    1.955438
H      -0.397116   -1.704196    2.630344
