23

C      -0.099353    1.596922    0.089851
C       0.022392    0.061001    0.047812
C       0.718083   -0.440318    1.328619
C      -1.388896   -0.556319   -0.026776
O      -2.142827   -0.123377    1.098170
C       0.798929   -0.431420   -1.200223
O       0.172150   -0.042061   -2.433360
C       2.280094   -0.040644   -1.277202
O       2.859474   -0.554952   -2.458719
H       0.875846    2.081000    0.193215
H      -0.586545    1.995256   -0.808749
H      -0.719489    1.892152    0.938406
H       0.068664   -0.272327    2.190506
H       0.928464   -1.514592    1.270342
H       1.663497    0.079107    1.509084
H      -1.867183   -0.253630   -0.967512
H      -1.298513   -1.654753   -0.038023
H      -3.034073   -0.472678    1.014086
H       0.753939   -1.527618   -1.221716
H       0.134494    0.921552   -2.449329
H       2.380807    1.058072   -1.231471
H       2.838183   -0.456763   -0.433822
H       2.186716   -0.437528   -3.142367
