20

C      -0.097234    1.603877   -0.202072
C       0.060088    0.094957   -0.065199
C       1.149740   -0.625749   -0.858162
C       2.497687   -0.332579   -0.338468
N       1.682646   -1.333019    0.380802
C       0.709850   -0.536535    1.200183
C       1.213133    0.239933    2.431499
O       0.350552   -0.507479    3.311095
C      -0.123033   -1.325394    2.220495
H       0.851583    2.129749   -0.056968
H      -0.471372    1.864058   -1.198006
H      -0.810597    1.993102    0.532507
H      -0.907056   -0.389785   -0.236479
H       0.996668   -1.162183   -1.789277
H       3.342634   -0.773894   -0.857747
H       2.714481    0.619534    0.141321
H       2.276411    0.079397    2.654540
H       0.995409    1.314961    2.459221
H      -1.212932   -1.264428    2.103899
H       0.180932   -2.374462    2.319551
