20

C      -0.014162    1.452640   -0.419284
C      -0.024616    0.151133    0.391615
C      -1.387465   -0.494927    0.419650
O      -1.815768   -1.147524   -0.801485
C      -1.591467   -1.939060    0.350695
C      -0.609700   -3.137722    0.334173
C      -1.738505   -3.980187    0.952306
N      -2.094792   -3.318838    2.229429
C      -2.673793   -2.819690    0.949234
H       0.983441    1.901347   -0.433351
H      -0.318389    1.262512   -1.452823
H      -0.706311    2.188669    0.004233
H       0.697260   -0.557797   -0.028055
H       0.285229    0.347695    1.426173
H      -2.175401    0.102217    0.884721
H      -0.375837   -3.421951   -0.694645
H       0.305392   -3.057449    0.925593
H      -1.940576   -5.030996    0.789863
H      -2.817094   -3.888031    2.671783
H      -3.742942   -2.765076    0.787428
