11

O      -0.012340    0.014543   -0.275548
C      -0.052316    1.195577   -0.083741
C      -1.258934    2.099729    0.079360
C      -0.658695    3.511137   -0.002023
O       0.773927    3.381250    0.158504
C       1.194188    2.099575    0.059343
O       2.338639    1.763263    0.094217
H      -2.018980    1.896298   -0.677112
H      -1.705742    1.903123    1.060217
H      -0.842897    3.982357   -0.971797
H      -1.010581    4.181807    0.783487
