13

N      -0.032730    1.380462    0.142550
C       0.013181    0.014887    0.029517
N      -1.032697   -0.797542    0.016337
H      -1.995425   -0.508077    0.047583
C      -0.612088   -2.159761   -0.004761
C      -1.538617   -3.198328   -0.023313
N      -2.349935   -4.033238   -0.039116
C       0.805368   -2.176795   -0.014455
O       1.673476   -3.023146   -0.033540
N       1.121645   -0.732346    0.002599
H       0.753457    1.870619   -0.259933
H      -0.913738    1.807516   -0.106581
H       2.067882   -0.390986    0.047272
