15

O       0.014474    0.023184   -0.211315
C       0.029184    1.201358   -0.006532
O      -1.121008    1.927255    0.120557
C      -0.916006    3.228767    0.685097
C      -0.152421    3.080465    2.024222
C       1.143279    3.181143    1.199495
C       0.385893    3.909538    0.065758
O       0.970421    3.123423   -0.967100
C       1.249177    2.110398    0.050659
H      -1.873992    3.743701    0.646666
H      -0.270285    3.962806    2.659486
H      -0.362893    2.178362    2.603755
H       2.089483    3.508682    1.627668
H       0.354900    4.981037   -0.133955
H       2.179657    1.571722   -0.121031
