25

C       0.011106    1.558393   -0.034995
C       0.063762    0.025503    0.053205
C       0.760168   -0.410936    1.349988
C      -1.336823   -0.593705   -0.077240
C      -2.059024   -0.254589   -1.400128
O      -2.883107   -1.365929   -1.739451
C      -2.738876   -2.406101   -0.767711
C      -2.867870   -3.751443   -1.464006
C      -1.394429   -2.131134   -0.089140
H       1.015072    1.988454    0.042125
H      -0.424024    1.900573   -0.978946
H      -0.590657    1.975877    0.781355
H       0.661687   -0.342759   -0.794162
H       0.188324   -0.088126    2.228609
H       0.873458   -1.497434    1.406331
H       1.758501    0.032603    1.425810
H      -1.951058   -0.231664    0.759697
H      -2.676509    0.648488   -1.319365
H      -1.334164   -0.090455   -2.212169
H      -3.545381   -2.310827   -0.019495
H      -2.070790   -3.878011   -2.203440
H      -2.806603   -4.568709   -0.737972
H      -3.828808   -3.823832   -1.981240
H      -0.578083   -2.538301   -0.700469
H      -1.329071   -2.578396    0.905658
