17

O      -0.102255   -0.028837    0.258140
C      -0.066436    1.162148    0.198384
C      -1.129580    2.297569    0.109522
C       0.087916    3.200204   -0.129236
C       1.043644    3.091134    0.973401
N       1.075581    2.018915   -0.073543
N      -2.087202    2.263464   -0.975995
C      -1.816909    1.449551   -2.163392
C      -2.856912    1.035913   -1.181301
H      -1.675245    2.497312    1.037747
H       0.160957    3.922230   -0.932035
H       1.941448    3.699598    0.954211
H       0.694822    2.831263    1.970355
H      -2.102209    1.911754   -3.103558
H      -0.909201    0.853003   -2.203777
H      -2.621551    0.177962   -0.557492
H      -3.910883    1.184009   -1.398733
