22

C      -0.579316    1.496549   -0.368335
C      -0.004033    0.123038   -0.040885
C       1.142388   -0.376967   -0.994433
C       1.986234   -0.754382    0.252359
O       3.360665   -0.456001    0.269188
C       1.014371    0.068848    1.139442
N      -1.136743   -0.773010    0.211016
C      -1.835470   -1.368374   -0.918370
C      -1.033989   -2.211692    0.012486
H       0.217071    2.237591   -0.485965
H      -1.153647    1.467748   -1.301117
H      -1.249473    1.826873    0.431122
H       0.922240   -1.166300   -1.718436
H       1.591799    0.460086   -1.539087
H       1.926030   -1.823107    0.474428
H       3.462843    0.486845    0.100940
H       1.423233    1.058271    1.371389
H       0.654769   -0.389792    2.062971
H      -2.920881   -1.356860   -0.867165
H      -1.426685   -1.218919   -1.916894
H      -0.111896   -2.635266   -0.379067
H      -1.522829   -2.821444    0.767521
