17

C      -0.044989    1.577458    0.042350
N      -0.193104    0.131825   -0.104788
C       0.635697   -0.479033   -1.129437
C       2.205501   -0.474409   -0.891519
C       2.096914   -1.965193   -0.537097
O       2.848989   -2.756195   -0.053439
C       0.635188   -2.042032   -1.004718
C       0.246674    0.021498   -2.450601
N      -0.028726    0.409573   -3.503816
H       0.985519    1.910554    0.249589
H      -0.380807    2.071385   -0.874153
H      -0.685902    1.914283    0.860622
H      -0.020849   -0.333847    0.780023
H       2.803779   -0.307364   -1.792311
H       2.563849    0.191507   -0.102537
H      -0.099895   -2.453027   -0.308026
H       0.538017   -2.557797   -1.963820
