19

O       0.020718    0.005997   -0.091488
C       0.008027    1.202486    0.033575
C      -1.232046    2.101687   -0.044437
C      -0.680581    3.532340   -0.083205
C       0.656951    3.457395    0.703112
C       1.228105    2.086429    0.309498
C       1.549507    4.644699    0.420288
C       3.015095    4.581930    0.374274
O       2.244369    4.650238   -0.830186
H      -1.865287    1.823534   -0.890100
H      -1.819062    1.923019    0.866352
H      -0.463950    3.826736   -1.116523
H      -1.366729    4.274624    0.332793
H       0.430288    3.462543    1.778403
H       1.885733    1.619776    1.046010
H       1.789513    2.179724   -0.629987
H       1.102031    5.609166    0.670903
H       3.601192    5.470808    0.602498
H       3.523108    3.634982    0.547052
