20

C       0.015965    1.467826    0.004075
C       1.334864    0.751755    0.072000
C       0.017760   -0.032556    0.080265
C       0.370809   -0.673312   -1.278620
C      -0.378006   -0.301226   -2.573276
C       0.739627    0.215136   -3.512210
C       1.734393    0.957453   -2.586611
C       1.717364    0.128878   -1.287194
H      -0.277006    1.969614    0.921056
H      -0.301091    1.990858   -0.894108
H       2.026059    0.923154    0.888760
H      -0.454658   -0.554034    0.904342
H       0.522363   -1.751267   -1.188375
H      -0.929210   -1.140523   -3.007309
H      -1.106741    0.494781   -2.384057
H       1.245778   -0.639275   -3.979156
H       0.360295    0.843147   -4.324694
H       2.730765    1.040337   -3.030460
H       1.382931    1.978249   -2.399680
H       2.593972   -0.517141   -1.201671
