18

O      -0.087866    1.460851    0.032304
C       0.019997    0.045902   -0.003938
C       0.788548   -0.503303    1.204724
C       0.825778   -2.043066    1.203404
C      -0.570283   -2.642565    1.069951
O      -0.970291   -3.525916    1.790886
C      -1.413871   -2.048129   -0.051815
C      -1.403714   -0.508783   -0.031625
H       0.800229    1.828847    0.081626
H       0.539375   -0.273086   -0.926002
H       1.811995   -0.107556    1.213126
H       0.299179   -0.138399    2.116150
H       1.414933   -2.390023    0.341933
H       1.294316   -2.443468    2.105101
H      -0.987694   -2.400821   -1.002515
H      -2.426705   -2.449929    0.022628
H      -1.930531   -0.140417    0.857142
H      -1.934615   -0.111307   -0.901790
