19

C       0.354133    1.244600   -0.252481
O       0.115691   -0.128659   -0.021328
C       0.603246   -0.578742    1.199434
C       0.236242   -2.021621    1.655251
C       1.191943   -3.228344    1.298792
C       2.233452   -3.195243    0.164994
C       2.527997   -1.699475    0.157765
C       2.052622   -1.132899    1.284733
C       1.592472   -2.201135    2.290638
H       1.429700    1.468481   -0.299220
H      -0.104383    1.496787   -1.211178
H      -0.094882    1.870559    0.533886
H       0.321955    0.119990    2.004583
H      -0.720560   -2.261708    2.112667
H       0.782474   -4.181698    1.629206
H       3.061563   -3.882299    0.391077
H       1.845313   -3.475152   -0.821777
H       2.554196   -1.164749   -0.786617
H       1.859399   -2.295177    3.334296
