15

N       0.051246   -1.109767    0.546249
C       0.085078    0.026448    0.336891
C       0.085280    1.439017    0.041497
N       0.732891    2.330987    1.025045
C       1.335145    2.200825   -0.297479
C       2.694497    1.572818   -0.363202
C       3.783212    2.139387    0.475765
N       3.224202    0.812569    0.769009
H      -0.834200    1.779696   -0.427267
H       0.200660    3.190613    1.121463
H       1.177514    3.010691   -1.009439
H       2.941473    1.157951   -1.338279
H       4.805731    2.142360    0.109754
H       3.526074    2.964313    1.135591
H       2.574978    0.888882    1.550825
