18

N       0.964313   -0.076100   -0.239355
C      -0.188924    0.379929    0.043311
N      -1.304202   -0.454924    0.047845
C      -1.101569   -1.869574   -0.303467
C      -2.293695   -2.724429    0.114354
N      -3.571057   -2.158704   -0.308371
C      -3.756228   -0.841408    0.283769
C      -2.553890    0.106697    0.306070
O      -2.696262    1.283627    0.570327
H       1.654992    0.670287   -0.185921
H      -0.449870    1.405971    0.301493
H      -0.936109   -1.944631   -1.386511
H      -0.175024   -2.199621    0.173465
H      -2.178527   -3.729434   -0.302884
H      -2.318727   -2.828699    1.206615
H      -3.588918   -2.084683   -1.321362
H      -4.569018   -0.307909   -0.214884
H      -4.065496   -0.957305    1.332343
