16

C       0.037173    1.451688    0.023531
C      -0.031343   -0.045473   -0.008269
O       0.946001   -0.643971   -0.837853
C       0.454539   -1.926883   -1.242349
C      -0.677328   -2.206339   -0.266981
O      -0.082831   -2.210410    1.070754
C      -0.459316   -0.842410    1.218092
C      -1.320618   -0.821309   -0.024821
H       1.030051    1.780659    0.345186
H      -0.158346    1.872606   -0.967821
H      -0.700152    1.856880    0.722977
H       0.101426   -1.899039   -2.285313
H       1.261820   -2.659630   -1.151673
H      -1.294697   -3.085429   -0.454402
H      -0.600190   -0.453223    2.220931
H      -2.322426   -0.479404   -0.248192
