15

N       0.076463    1.338660    0.102623
C      -0.024142   -0.015681    0.035202
C      -1.145613   -0.783101   -0.030260
C      -0.793314   -2.202863    0.006891
O      -1.533103   -3.164907    0.032036
C       0.733145   -2.275914    0.014322
C       1.429386   -1.693791   -1.195619
C       1.217697   -0.852492    0.049061
H       0.959198    1.768683   -0.118555
H      -0.739172    1.899193   -0.083999
H      -2.163557   -0.428716   -0.120504
H       1.213588   -3.072589    0.567215
H       2.438920   -2.038392   -1.397450
H       0.838535   -1.461991   -2.075433
H       2.069734   -0.534310    0.639108
