21

C       0.086893    1.490677    0.127275
C      -0.030796    0.005368   -0.006556
C      -0.107671   -0.747299   -1.117881
C      -0.060534   -0.330751   -2.553350
C      -0.036952   -2.210116   -0.714279
C       1.426173   -2.477729   -0.177372
C       0.929909   -2.116458    1.217325
C      -0.509085   -2.255267    0.775103
C      -0.027969   -0.896240    1.189914
H       1.043950    1.774654    0.584351
H       0.015150    2.000032   -0.837236
H      -0.699337    1.894906    0.778291
H      -0.061977    0.756217   -2.670748
H       0.838122   -0.716301   -3.053872
H      -0.918767   -0.729626   -3.109950
H      -0.430766   -2.930860   -1.431112
H       1.670184   -3.542367   -0.226847
H       2.237323   -1.893076   -0.626106
H       1.387802   -2.414398    2.153482
H      -1.341431   -2.800302    1.203688
H      -0.295748   -0.511535    2.168720
