16

N      -0.141310    1.446278    0.069781
C      -0.035845   -0.018603   -0.032979
C      -1.468376   -0.583803    0.101029
O      -2.087559   -0.139067    1.277172
C       0.648289   -0.495287   -1.341590
O       1.935095    0.062868   -1.494827
C       0.799139   -0.492363    1.088219
N       1.521985   -0.891221    1.896748
H       0.790534    1.851428    0.053353
H      -0.613173    1.790419   -0.764501
H      -2.024930   -0.279257   -0.803539
H      -1.445302   -1.677318    0.125575
H      -1.837328    0.791516    1.371697
H       0.665402   -1.594058   -1.378865
H       0.051667   -0.136665   -2.187507
H       2.522530   -0.361712   -0.858435
