14

N       0.016290    1.353938    0.133625
C      -0.012074   -0.010823    0.061928
C      -1.224168   -0.720884    0.028805
C      -1.082817   -2.094355   -0.007381
F      -2.178918   -2.843147   -0.053318
N       0.056464   -2.751144   -0.004149
C       1.147964   -1.965151    0.039039
N       2.349584   -2.605967    0.090536
N       1.176239   -0.627829    0.059482
H       0.908031    1.782109   -0.056900
H      -0.799825    1.869300   -0.149325
H      -2.194015   -0.244099    0.030643
H       2.357835   -3.581818   -0.152084
H       3.170561   -2.057677   -0.099790
