16

O       0.101576    1.085014   -0.588243
C       0.060758   -0.249522   -0.120414
C      -1.372986   -0.654603    0.169086
O      -2.216098   -0.514217   -1.019737
C      -2.696847   -1.870913   -0.897908
C      -1.761991   -2.136211    0.297533
O      -0.954936   -3.028424   -0.526527
C      -1.806346   -2.868975   -1.619358
N      -1.788313   -3.390903   -2.754541
H      -0.465463    1.118453   -1.368101
H       0.507591   -0.950564   -0.837320
H       0.651001   -0.285128    0.801792
H      -1.790102   -0.043454    0.979376
H      -3.780680   -1.962448   -0.951931
H      -2.009518   -2.577638    1.259796
H      -0.990526   -4.017863   -2.874409
