25

C      -0.101285    1.528068    0.126766
C       0.017567    0.012553    0.049142
C      -1.104051   -0.664056    0.824471
C       0.557278   -0.659945   -1.227899
C      -0.053601   -1.975212   -1.692990
C       0.978387    0.190323   -2.418534
C       1.392369   -0.657889    0.038747
C       2.685072    0.121216    0.173706
O       1.495477   -1.925398    0.654435
H       0.680664    2.063635   -0.412038
H      -1.063855    1.857177   -0.283422
H      -0.065333    1.861221    1.171159
H      -2.069477   -0.518336    0.325721
H      -0.940923   -1.734084    0.948332
H      -1.190755   -0.223446    1.825647
H      -1.009050   -1.798400   -2.201124
H       0.613238   -2.462843   -2.413557
H      -0.216892   -2.677304   -0.877873
H       1.431697    1.144226   -2.147816
H       1.704045   -0.353277   -3.034936
H       0.111978    0.408427   -3.054220
H       2.662634    1.088432   -0.329001
H       2.906980    0.309834    1.232323
H       3.514935   -0.461037   -0.239841
H       1.600509   -1.782874    1.601891
