20

C      -0.028449    1.493476   -0.061651
C       1.535633    1.576807   -0.044520
C       1.580841    0.053534   -0.232933
C       2.449131   -1.028903    0.385115
C       1.648388   -2.302897   -0.032785
C       0.839401   -1.866709   -1.264265
C       1.170774   -0.481868   -1.629038
N      -0.233880   -0.810970   -1.171300
C       0.059462   -0.054924    0.078620
H      -0.534010    2.009284    0.756735
H      -0.485931    1.798369   -1.005471
H       2.022834    2.194238   -0.804514
H       1.912986    1.878387    0.937438
H       3.460164   -1.041642   -0.040643
H       2.543241   -0.930474    1.471749
H       2.305582   -3.136174   -0.297616
H       0.999993   -2.655125    0.776360
H       0.601193   -2.597812   -2.028341
H       1.404294   -0.086902   -2.611198
H      -0.345060   -0.484570    0.999847
