21

C      -0.132544    1.346670   -0.234366
C      -0.026270   -0.103017    0.120636
C      -1.045045   -0.961706    0.322094
C      -2.257058   -0.999183   -0.581122
C      -1.566933   -1.838489   -1.727067
C      -0.521651   -2.733920   -1.006325
C       0.772941   -2.305055   -0.237151
C       1.274132   -0.869433   -0.089118
C      -0.548971   -2.390033    0.451470
H       0.466941    1.962262    0.449357
H       0.252582    1.546024   -1.243576
H      -1.163901    1.705099   -0.180214
H      -3.109580   -1.543835   -0.162369
H      -2.602532   -0.021791   -0.925319
H      -2.282737   -2.473420   -2.262033
H      -1.121532   -1.160017   -2.462357
H      -0.482704   -3.772974   -1.322076
H       1.494932   -3.111310   -0.134128
H       1.779992   -0.476808   -0.982499
H       2.004665   -0.799282    0.730993
H      -0.826693   -3.045541    1.269704
