16

O      -0.030573   -0.084102   -0.171777
C      -0.046398    1.119340   -0.094849
N       1.106549    1.901678    0.033256
C       0.992123    3.291439    0.115685
O      -0.049930    3.896811    0.085013
C       2.408775    1.247621    0.078240
C       3.503575    1.822569   -0.850422
O       4.216505    2.381558    0.273053
C       3.365286    1.688973    1.210433
H      -0.952979    1.738117   -0.115531
H       1.976026    3.782506    0.213529
H       2.212711    0.181147   -0.004053
H       4.092241    1.058263   -1.372378
H       3.185131    2.586526   -1.568304
H       2.947582    2.357040    1.971749
H       3.885846    0.858872    1.703465
