18

C      -1.199518    0.741646    0.288637
C       0.079354    0.007080   -0.002708
N       1.035981   -0.184196    0.824418
O       0.787502    0.396614    2.072426
C       0.260732   -0.586006   -1.387879
C       1.709251   -0.929569   -1.750377
O       1.781461   -1.558880   -3.020842
C      -0.602882   -1.848005   -1.465407
O      -1.731888   -1.874632   -1.877865
H      -1.454964    0.675353    1.346804
H      -1.090530    1.803975    0.037832
H      -2.014252    0.338047   -0.317822
H       1.570226    0.144026    2.573754
H      -0.156436    0.121893   -2.116301
H       2.334749   -0.029068   -1.692481
H       2.114135   -1.646589   -1.032642
H       1.498082   -0.925777   -3.688575
H      -0.105362   -2.756108   -1.059187
