22

C      -0.125626    1.576277   -0.030891
C      -0.066105    0.046320   -0.091336
C       0.766384   -0.518210   -1.259407
C       2.245460   -0.122012   -1.163374
C       0.619033   -2.050335   -1.327942
C      -0.827000   -2.547818   -1.611726
O      -0.683037   -3.458491   -2.729587
C       0.617144   -3.365484   -3.092828
N       1.414053   -2.642400   -2.427085
H       0.859118    2.017565    0.146819
H      -0.513072    1.993813   -0.967113
H      -0.784526    1.908135    0.777554
H       0.341952   -0.342602    0.852233
H      -1.092946   -0.336210   -0.155330
H       0.359700   -0.114926   -2.199360
H       2.816172   -0.575414   -1.975629
H       2.373583    0.962636   -1.213377
H       2.678404   -0.466419   -0.215916
H       0.995180   -2.468572   -0.383822
H      -1.283909   -3.095385   -0.784946
H      -1.501444   -1.742212   -1.922005
H       0.879038   -3.953932   -3.965643
