19

C      -0.083047    1.355271    0.000861
O       0.087572   -0.058064   -0.004019
C       0.676977   -0.534164   -1.137758
C       2.166561   -0.358027   -1.649073
C       1.522757   -1.328837   -2.699988
C       2.164777   -1.952907   -3.903356
C       0.848974   -2.044475   -1.468459
C       0.309054   -0.382583   -2.629466
O      -0.467795    0.168771   -3.350082
H       0.885935    1.873009    0.000332
H      -0.667285    1.686825   -0.865363
H      -0.618246    1.603465    0.918971
H       2.484457    0.625521   -2.000968
H       2.911408   -0.826991   -1.001719
H       3.013016   -2.585842   -3.623900
H       1.445690   -2.571988   -4.449326
H       2.529319   -1.182620   -4.590522
H       1.552093   -2.569111   -0.816930
H      -0.056243   -2.626714   -1.651555
