13

N       0.101823    1.333385    0.137892
C      -0.062453   -0.012406    0.048772
C      -1.238095   -0.686662    0.021933
C      -1.238062   -2.125113   -0.011794
O      -2.197525   -2.866124   -0.035011
N       0.070455   -2.679035   -0.019853
C       1.262012   -2.016057   -0.007984
O       2.352467   -2.506380   -0.027059
O       1.146461   -0.630908    0.028999
H       1.008323    1.698727   -0.106638
H      -0.690180    1.919707   -0.064713
H      -2.185350   -0.168453    0.034515
H       0.125384   -3.687810   -0.046969
