19

C       0.115723    1.297773    0.247158
N       0.166253   -0.121629   -0.089518
C       0.677598   -0.469635   -1.420429
C       2.193102   -0.112508   -1.650510
C       2.899774   -1.394119   -1.285326
C       2.064016   -2.429295   -1.232713
C       0.644637   -2.029307   -1.547074
C      -0.177898    0.169367   -2.432428
N      -0.828963    0.670792   -3.244937
H       1.082820    1.825457    0.208241
H      -0.573003    1.808178   -0.432448
H      -0.280286    1.397829    1.261229
H       0.721627   -0.626911    0.593710
H       2.386042    0.160192   -2.695837
H       2.493504    0.747944   -1.045084
H       3.970393   -1.439638   -1.121727
H       2.343073   -3.456092   -1.026435
H      -0.105254   -2.434509   -0.861354
H       0.358810   -2.342313   -2.558380
