16

O      -0.095216    1.397079    0.029088
C       0.015116    0.019444    0.046280
C      -0.295766   -0.843116   -1.147171
C      -1.115321   -0.971163    0.125581
C      -0.369190   -1.701466    1.289354
O      -1.041310   -2.091326    2.432306
C       1.011798   -2.189557    0.943025
C       0.763826   -0.714094    1.206259
H       0.672116    1.753901   -0.433494
H      -0.818137   -0.298259   -1.928937
H       0.350542   -1.630938   -1.519545
H      -2.180596   -0.783673    0.155122
H      -1.386260   -2.980458    2.289184
H       1.498118   -2.688550    1.776887
H       1.298102   -2.579194   -0.028178
H       1.252294   -0.173333    2.006141
