18

O       0.005509    0.036747    0.155663
C      -0.047954    1.233606    0.065262
C      -1.242575    2.171634    0.014212
C      -0.761664    3.154435    1.119824
N       0.340362    3.548655    0.163110
C      -0.657015    3.269392   -0.952967
C       0.143961    2.826290   -2.179488
C       1.472423    2.322340   -1.541765
C       1.097777    2.267499   -0.052480
H      -2.237096    1.732312   -0.049514
H      -1.435348    3.999023    1.281164
H      -0.433132    2.749283    2.081210
H      -1.338899    4.108993   -1.101657
H      -0.376028    2.041592   -2.736572
H       0.310882    3.661286   -2.863907
H       1.794875    1.349232   -1.917717
H       2.281632    3.040386   -1.697036
H       1.924672    2.126444    0.643845
