16

O       0.030670   -0.061613   -0.172025
C       0.009821    1.151468   -0.075932
N      -1.151549    1.857142    0.087675
C      -1.333846    3.277053    0.044615
C      -0.937346    4.170115    1.194559
C      -0.103330    4.138121   -0.069781
C       1.225496    3.441292   -0.062263
O       1.560316    2.699707    1.103932
C       1.277169    1.965924   -0.102019
H      -1.972087    1.275454    0.179345
H      -2.203397    3.570710   -0.535920
H      -1.538509    5.050431    1.390987
H      -0.500667    3.688748    2.061130
H      -0.159321    4.988562   -0.740026
H       2.056468    3.994532   -0.497338
H       2.124207    1.435213   -0.527985
