21

C       0.100788    1.519428    0.074780
C       0.058055    0.064691    0.020820
C       0.035782   -1.138780   -0.023775
C      -0.015465   -2.596092   -0.066387
C      -1.454217   -3.166966   -0.119834
C      -2.198554   -2.710354   -1.380023
C      -1.412761   -4.705093   -0.015279
C      -2.785371   -5.306165    0.184697
O      -3.266800   -6.182301   -0.485755
H       0.901007    1.869398    0.736371
H       0.278572    1.951343   -0.916309
H      -0.841813    1.932311    0.450933
H       0.543936   -2.961939   -0.938976
H       0.498169   -3.004531    0.814086
H      -1.988346   -2.780615    0.758997
H      -3.229833   -3.076950   -1.391555
H      -2.221852   -1.619490   -1.440694
H      -1.703774   -3.090131   -2.281747
H      -0.956784   -5.157771   -0.901949
H      -0.810185   -4.990773    0.860031
H      -3.351084   -4.865824    1.041008
