15

C       0.115039    1.396650    0.007514
N       0.029068   -0.052462    0.004366
C      -1.125391   -0.597897    0.011417
N      -1.179825   -2.005436    0.008431
C      -2.340804   -2.692301    0.015037
F      -2.200277   -4.006397    0.010680
C      -3.540466   -2.059784    0.025280
N      -3.574672   -0.687286    0.029107
C      -2.469445   -0.010124    0.022840
H       1.168798    1.686957   -0.000164
H      -0.357691    1.854834   -0.874229
H      -0.343431    1.850057    0.899203
H      -0.295647   -2.496526    0.000711
H      -4.471207   -2.608530    0.030571
H      -2.543302    1.072745    0.026295
