23

C       0.029627    1.595426   -0.104024
C       0.075581    0.068523    0.002672
C       0.745471   -0.611210   -1.177601
O       2.182035   -0.596056   -1.137518
C       1.490401   -1.783305   -0.715252
C       1.334000   -1.911668    0.784442
C       0.790501   -0.529555    1.273590
C       1.960008    0.344109    1.765528
C      -0.212629   -0.706855    2.423023
H       1.030523    2.018720   -0.222221
H      -0.565028    1.899091   -0.972293
H      -0.429748    2.047511    0.780957
H      -0.961682   -0.298764    0.008163
H       0.312322   -0.535390   -2.173269
H       1.660101   -2.660106   -1.335787
H       0.611636   -2.712855    0.987738
H       2.268083   -2.185543    1.286335
H       2.704653    0.490247    0.981605
H       1.613219    1.325013    2.105666
H       2.450248   -0.140253    2.617689
H       0.268512   -1.159391    3.297277
H      -0.626060    0.257523    2.739798
H      -1.049265   -1.350698    2.130445
