19

C       0.005724    1.582433   -0.239965
O       1.448742    1.478060    0.101672
C       1.068797    0.316716    0.946566
C       1.259317   -1.239128    1.050289
C      -0.363887   -1.220157    0.979518
C      -0.920075   -0.899502    2.340922
C      -0.347933    0.088425    3.024795
C       0.784663    0.843907    2.374517
C      -0.098768    0.056532    0.072156
H      -0.508938    2.267435    0.440535
H      -0.137219    1.889874   -1.278242
H       1.694162   -1.695405    0.160107
H       1.701795   -1.653446    1.960589
H      -0.842988   -2.073298    0.499058
H      -1.756773   -1.472862    2.726186
H      -0.684063    0.390386    4.012195
H       1.708812    0.752263    2.963162
H       0.559822    1.915364    2.349410
H       0.312820   -0.380365   -0.843883
