17

C       0.108217    1.448467    0.131688
C      -0.069217   -0.022801    0.036741
C      -1.132359   -0.835882   -0.155594
C      -0.627908   -2.186460   -0.146087
C      -1.407152   -3.404521   -0.316350
O      -2.607093   -3.432073   -0.491528
C       0.727291   -2.088038    0.054910
C       1.829011   -3.078598    0.167965
O       1.074757   -0.784636    0.166622
H       0.783181    1.822697   -0.646290
H      -0.857829    1.943810    0.015136
H       0.530369    1.740502    1.099871
H      -2.161927   -0.547004   -0.291179
H      -0.819984   -4.349104   -0.275736
H       1.445577   -4.094902    0.064959
H       2.585225   -2.914767   -0.607875
H       2.332680   -2.996400    1.137607
