20

C      -0.040868    1.497677    0.052562
C       0.038797   -0.018769    0.043672
C       0.658051   -0.724820   -1.208637
C       0.459244   -2.128622   -0.601669
C       1.131669   -1.935759    0.741525
C       0.868166   -0.681002    1.129873
N      -1.070225   -2.118571   -0.480512
C      -1.659834   -1.914223    0.854204
C      -1.349140   -0.750834   -0.008924
H       0.954044    1.945838   -0.035049
H      -0.648528    1.864810   -0.781726
H      -0.493574    1.866769    0.979432
H       0.075008   -0.572360   -2.122118
H       1.705761   -0.462199   -1.374984
H       0.761638   -2.993436   -1.189984
H       1.614116   -2.715361    1.318041
H       1.095621   -0.222514    2.085246
H      -2.688155   -2.258768    0.929094
H      -1.053937   -2.081699    1.737886
H      -2.147093   -0.206336   -0.510412
