16

C       0.042809    1.371191    0.148684
N       0.101617   -0.075654    0.095128
C       0.555577   -0.620546   -0.966866
N       1.079790    0.026007   -2.081578
C       0.628756   -2.082241   -1.057193
C       1.291770   -2.948461   -1.873596
N       1.003382   -4.251451   -1.500338
C       0.198644   -4.110454   -0.495788
O      -0.079729   -2.834962   -0.162896
H       1.045360    1.824649    0.181304
H      -0.490401    1.815918   -0.709705
H      -0.486175    1.677964    1.054169
H       0.891702    1.014350   -2.144738
H       0.980484   -0.453487   -2.963527
H       1.973232   -2.730705   -2.680731
H      -0.271688   -4.878675    0.097732
