17

O       0.106615    1.165020   -0.571646
C      -0.061243    0.078855    0.325866
C      -1.465419   -0.425883    0.319642
C      -1.929143   -1.831494    0.459061
C      -3.397780   -1.585119    0.861396
N      -3.350210   -0.436941    1.826456
C      -2.777344    0.316073    0.661211
C      -3.392425   -0.654973   -0.391532
N      -2.025684   -1.154110   -0.882153
H      -0.184539    0.848493   -1.434912
H       0.625110   -0.750194    0.091883
H       0.199839    0.456241    1.320735
H      -1.289596   -2.687611    0.631544
H      -4.066946   -2.418956    1.062491
H      -4.307892   -0.110764    1.968656
H      -2.807318    1.403163    0.659716
H      -4.203901   -0.465388   -1.092229
