14

N       0.135246    1.371418    0.106230
C      -0.021044   -0.024472    0.016128
C      -1.133471   -0.839114    0.026225
C      -0.629737   -2.180912    0.040253
C       0.733182   -2.095262    0.038054
N       1.151064   -0.801116   -0.012547
O       1.296625   -3.318573   -0.050010
C       0.169954   -4.135760   -0.072248
N      -0.971722   -3.530908   -0.028809
H       0.324201    1.803343   -0.794156
H      -0.695346    1.802953    0.491637
H      -2.157062   -0.500155    0.004698
H       2.056760   -0.429410    0.217846
H       0.374110   -5.193462   -0.102491
