17

C      -0.205866    1.568045    0.040227
C       0.038650    0.056499   -0.029365
C       0.847557   -0.453924   -1.213249
C       2.337553   -0.195028   -1.220233
O       2.788712    0.185306    0.084194
C       2.146091   -1.016066    0.638220
C       1.830919   -1.535771   -0.774686
C       0.830374   -0.461060    1.192917
O       0.489897   -0.398595    2.343524
H       0.742426    2.110807    0.009298
H      -0.826719    1.903950   -0.796039
H      -0.718124    1.821815    0.972601
H      -0.927741   -0.464784   -0.014895
H       0.374005   -0.568946   -2.182125
H       2.918280    0.135727   -2.072931
H       2.790604   -1.559622    1.326590
H       1.930473   -2.535566   -1.171296
