16

C      -0.133882    1.477102    0.209117
N      -0.109971    0.014627    0.074024
C      -0.059348   -0.758842    1.313721
C      -0.132070   -0.608306   -1.091445
N      -0.109854   -1.924433   -1.181858
H      -0.133661   -2.200906   -2.171716
H      -0.075306   -2.574435   -0.415638
C      -0.187785    0.053400   -2.583782
O      -0.211342    1.280018   -2.641133
O      -0.196446   -0.849235   -3.431311
H       0.765705    1.804298    0.740763
H      -0.170698    1.907830   -0.791126
H      -1.013352    1.770523    0.791711
H      -0.937520   -1.408667    1.407534
H       0.846678   -1.374972    1.355688
H      -0.047690   -0.072879    2.160037
