15

C       0.161555    1.468207    0.064618
C      -0.019000    0.000828    0.009776
C      -1.093392   -0.831252   -0.065812
N      -0.658271   -2.168797   -0.076085
C       0.628719   -2.066070   -0.016998
N       1.562931   -3.068392   -0.071401
O       1.108426   -0.798176    0.040139
C      -2.456774   -0.462992   -0.120633
C      -3.614744   -0.135550   -0.165962
H       0.755750    1.835172   -0.780466
H      -0.819013    1.947655    0.031712
H       0.669389    1.780729    0.984724
H       1.174929   -3.976058    0.139109
H       2.424218   -2.873214    0.417710
H      -4.637634    0.145572   -0.206865
