21

C      -0.027836    1.436315   -0.518143
C      -0.024860    0.120019    0.269938
C      -1.378312   -0.577802    0.280300
C      -2.490758    0.190388    0.973139
N      -1.720283   -1.284461   -0.974064
C      -1.507699   -2.065546    0.266097
C      -0.383663   -3.074378    0.193273
O      -0.703725   -4.108254   -0.724495
H       0.979229    1.861460   -0.562844
H      -0.369099    1.264442   -1.543722
H      -0.680701    2.188197   -0.064311
H       0.720640   -0.545866   -0.170787
H       0.287866    0.303366    1.306301
H      -2.698765    1.138349    0.465829
H      -3.418667   -0.390190    0.991520
H      -2.221085    0.422743    2.009470
H      -2.714461   -1.196362   -1.169132
H      -2.403414   -2.461491    0.744022
H       0.563418   -2.589046   -0.077080
H      -0.243769   -3.556778    1.166636
H      -0.914974   -3.660566   -1.552882
