16

C      -0.016849    1.546575   -0.033837
C       0.018142    0.041544   -0.041867
C       0.082959   -0.721624   -1.196458
O       0.169573   -0.213066   -2.448192
C       0.041020   -2.121033   -1.078530
N      -0.044565   -2.741818    0.084728
N      -0.070703   -2.039066    1.212649
C      -0.042775   -0.702515    1.156868
N      -0.140258   -0.061632    2.382944
H       0.969428    1.990231    0.155338
H      -0.384505    1.962573   -0.978551
H      -0.694887    1.903885    0.747326
H       0.241771    0.746419   -2.407945
H       0.077539   -2.740280   -1.968561
H      -0.029616   -0.711922    3.149851
H       0.408569    0.777304    2.495912
