22

C      -0.514130    1.469311    0.152156
C       0.002676    0.034921    0.011093
C      -1.164003   -0.905472   -0.352084
C       1.109511   -0.090358   -1.084137
C       2.063738   -1.121283   -0.530376
C       1.840995   -1.353015    0.761701
C       0.720958   -0.517743    1.274089
C       0.844009    0.225887    2.561967
N      -0.000106   -0.978307    2.475419
H       0.295618    2.168867    0.380663
H      -0.991006    1.798746   -0.777428
H      -1.267078    1.550410    0.945524
H      -1.628226   -0.592930   -1.293464
H      -0.815821   -1.936117   -0.466301
H      -1.945292   -0.898779    0.415667
H       0.688627   -0.373413   -2.056322
H       1.623626    0.868893   -1.239184
H       2.845687   -1.577014   -1.127143
H       2.391606   -2.026839    1.407379
H       1.741498    0.113655    3.165467
H       0.363501    1.195912    2.649568
H      -0.978290   -0.702496    2.417560
