21

C      -0.156168    1.449012   -0.330351
C       0.119187   -0.019673   -0.085362
O       1.303891   -0.523080   -0.775450
C       1.781339   -1.095289    0.441542
C       2.072884   -0.028792    1.450964
C       0.648145   -0.524762    1.269143
C      -0.229701   -1.084694    2.328151
C       0.228897   -1.302783    3.749221
C      -0.754067   -0.204128    3.445856
H       0.671592    2.077601    0.008258
H      -0.308519    1.632377   -1.398858
H      -1.065572    1.752209    0.199563
H      -0.746180   -0.622722   -0.394442
H       2.244021   -2.074801    0.401698
H       2.557944   -0.372935    2.358842
H       2.381719    0.956826    1.114101
H      -0.937833   -1.822884    1.957413
H      -0.128337   -2.189662    4.260630
H       1.238245   -1.014286    4.019046
H      -0.389351    0.816441    3.486870
H      -1.785405   -0.326162    3.757389
