21

C       0.050668    1.509296    0.032701
C      -0.001928    0.000777   -0.032487
C      -1.166500   -0.659157   -0.099746
C      -1.337571   -2.150756   -0.081382
C      -1.352220   -2.778025   -1.484846
C      -0.045412   -2.785472   -2.224541
C       1.187357   -2.376020   -1.886128
C       1.755238   -1.691123   -0.721725
C       1.295238   -0.677266    0.034777
H       0.599929    1.926634   -0.819860
H      -0.951529    1.945804    0.041337
H       0.575549    1.844586    0.936500
H      -2.083303   -0.073610   -0.156844
H      -0.538469   -2.616061    0.504552
H      -2.284533   -2.397045    0.413147
H      -1.698166   -3.821517   -1.418192
H      -2.107228   -2.272398   -2.102892
H      -0.115024   -3.286280   -3.190206
H       1.961495   -2.629064   -2.611664
H       2.782773   -1.994540   -0.521089
H       1.998036   -0.253374    0.752716
