20

C      -0.149469    1.580994    0.012335
C      -0.018104    0.056274    0.003281
C      -1.375423   -0.647196    0.011524
C      -1.263466   -2.158473    0.002467
O      -0.233966   -2.786670   -0.010883
O      -2.485855   -2.729388    0.011004
C      -2.506427   -4.170167    0.003356
C      -3.957757   -4.609894    0.016073
H       0.833513    2.061412    0.006244
H      -0.700341    1.939634   -0.864560
H      -0.684917    1.930479    0.902382
H       0.547538   -0.269435   -0.876189
H       0.562832   -0.278458    0.869298
H      -1.966829   -0.359614    0.890159
H      -1.982128   -0.350367   -0.853514
H      -1.977106   -4.528196   -0.885571
H      -1.958691   -4.537826    0.877050
H      -4.014646   -5.702533    0.010642
H      -4.469895   -4.242694    0.909962
H      -4.488407   -4.232920   -0.862824
