14

C       0.014067    1.390786    0.007981
O       0.024374   -0.021165    0.002801
C      -1.200580   -0.609657    0.010326
C      -2.450990   -0.023554    0.021861
N      -3.371119   -1.054066    0.025596
C      -2.726803   -2.258763    0.016588
C      -1.371981   -2.022158    0.007015
H       1.056261    1.714439    0.001187
H      -0.496786    1.790150   -0.879684
H      -0.483192    1.783678    0.906184
H      -2.762971    1.005988    0.027759
H      -4.366974   -0.929495    0.033711
H      -3.277799   -3.185473    0.017723
H      -0.582856   -2.756789   -0.001474
