14

N       0.179872    1.026926   -0.359727
C      -0.041315   -0.147046    0.269973
O       0.496307   -0.547169    1.268551
O      -1.015989   -0.841841   -0.436310
C      -1.374958   -2.060365    0.051992
N      -2.256283   -2.702567   -0.576003
C      -2.671883   -4.005999   -0.094347
C      -2.022312   -4.510772    1.128841
N      -1.495956   -4.880012    2.089074
H       0.862645    1.654169    0.025262
H      -0.323898    1.270243   -1.193689
H      -0.842919   -2.351848    0.958986
H      -3.754786   -3.983300    0.077996
H      -2.511337   -4.739040   -0.894206
