20

C      -0.065073    1.409531   -0.480118
C      -0.034375    0.018336    0.104987
O       0.952674   -0.456490    0.617205
C      -1.323443   -0.842973    0.049260
C      -1.014421   -2.106354   -0.766014
C      -1.738611   -1.167623    1.491016
O      -2.311827   -0.022503   -0.608994
C      -3.553805   -0.502117   -0.807830
N      -4.413460    0.222933   -1.383385
H       0.915093    1.870422   -0.355882
H      -0.342112    1.371368   -1.538054
H      -0.838756    2.010633    0.007201
H      -0.138713   -2.598692   -0.338571
H      -1.852539   -2.808620   -0.748796
H      -0.799529   -1.848212   -1.806996
H      -2.026844   -0.255762    2.021954
H      -2.580537   -1.865040    1.517420
H      -0.892690   -1.623159    2.009567
H      -3.714773   -1.520211   -0.437614
H      -5.295383   -0.279978   -1.457515
