17

C       0.055254    1.488497    0.075845
C      -0.013290   -0.005968    0.006923
C      -0.033352   -0.735072   -1.114735
C      -0.033472   -2.249095   -1.056999
C       0.007749   -2.677255    0.417558
O      -0.988780   -1.912719    1.159888
C      -0.049205   -0.809054    1.302655
C       1.070218   -1.862422    1.188396
O       2.175506   -2.030974    1.597933
H       0.947461    1.819246    0.622605
H       0.087197    1.933607   -0.922083
H      -0.810443    1.899099    0.610671
H      -0.050688   -0.258414   -2.091216
H      -0.920742   -2.665913   -1.551690
H       0.839726   -2.659366   -1.581845
H      -0.070690   -3.754343    0.582114
H      -0.202341   -0.225927    2.212322
