18

O      -0.023796    1.379968    0.065666
C       0.028750   -0.017432   -0.022426
C      -0.550491   -0.674780   -1.239324
C      -1.310401   -0.698138    0.090231
C      -1.445358   -1.978735    0.831849
N      -2.563086   -2.563845    0.938680
O      -0.293060   -2.522795    1.340828
C       0.695454   -1.593245    1.809538
C       1.202922   -0.693489    0.688676
H       0.624120    1.740561   -0.550178
H      -0.973172   -0.035558   -2.005779
H      -0.107134   -1.599820   -1.592445
H      -2.185841   -0.063654    0.132167
H      -2.450995   -3.422587    1.482118
H       0.265677   -0.988580    2.619057
H       1.493818   -2.209817    2.228543
H       1.806052   -1.279371   -0.013082
H       1.845031    0.082846    1.115518
