10

C       0.008201    1.480269   -0.018924
C      -0.058140   -0.003588    0.009647
N      -1.012805   -0.781734   -0.411016
C      -0.508296   -2.026045   -0.122633
N       0.669638   -2.037511    0.435252
O       0.980777   -0.673797    0.528068
H       0.870166    1.816092   -0.603103
H      -0.905637    1.870917   -0.465721
H       0.117505    1.880672    0.993344
H      -1.035101   -2.944969   -0.335213
