19

C      -0.346348    1.535834    0.071556
C       0.021140    0.051812   -0.031248
C       0.754808   -0.414117   -1.278414
C       2.230237   -0.105839   -1.496033
C       2.944378    0.226476   -0.187034
C       2.201317   -0.992045    0.483548
C       1.792176   -1.453551   -0.942545
C       0.943112   -0.418624    1.116553
O       0.709855   -0.300306    2.292254
H       0.525362    2.175468   -0.097052
H      -1.105345    1.804187   -0.669741
H      -0.744012    1.753186    1.067032
H      -0.901115   -0.539104    0.065310
H       0.187179   -0.551681   -2.192467
H       2.596839    0.128906   -2.488391
H       4.013638    0.013498   -0.254931
H       2.809392    1.217227    0.260353
H       2.789108   -1.630587    1.138257
H       1.856774   -2.450373   -1.356558
