22

C      -1.655534   -0.736909   -0.161546
C      -0.249441   -0.144759   -0.007700
C       0.741069   -0.582086   -1.087878
C       0.372681   -0.032044   -2.463043
O       0.431893    1.386717   -2.401050
C       2.260699   -0.390958   -0.795395
C       2.394317   -1.898338   -0.985231
C       1.518331   -2.634278   -0.057102
N       0.914173   -2.082970   -1.284510
H      -2.154587   -0.374811   -1.065427
H      -1.619385   -1.829150   -0.216964
H      -2.283717   -0.460292    0.690645
H      -0.294227    0.949663   -0.032874
H       0.146328   -0.408103    0.979363
H       1.081210   -0.434772   -3.201767
H      -0.628709   -0.386969   -2.745228
H       0.197621    1.735091   -3.265550
H       2.760842    0.212265   -1.554010
H       2.536392   -0.009028    0.192216
H       3.153255   -2.395299   -1.581253
H       1.560350   -3.719251   -0.074670
H       1.273387   -2.212390    0.913901
