19

C       0.020346    1.539065    0.031567
C      -0.043271    0.038434    0.129062
C      -1.335679   -0.701710   -0.238685
C      -1.329198   -2.007301    0.566772
C      -2.627960   -2.674032    0.933011
O      -0.250623   -2.887295    0.223534
C      -0.090106   -2.050850    1.371397
C       0.704458   -0.786807    1.100940
O       1.147483   -0.663097   -0.252360
H       0.996267    1.899591    0.366167
H      -0.124228    1.866196   -1.004222
H      -0.758123    2.007805    0.642752
H      -2.203420   -0.095493    0.045312
H      -1.398935   -0.892228   -1.314950
H      -3.172024   -2.982440    0.033203
H      -2.439366   -3.566035    1.535607
H      -3.274363   -1.995191    1.499240
H      -0.007556   -2.558551    2.329055
H       1.363475   -0.377426    1.862377
