21

C      -0.035759    1.308915    0.762826
C       1.215402    0.782936    0.083437
C       2.472627    0.344042    0.838978
C       2.476787   -1.075633    1.411634
C       1.889122   -2.126710    0.426058
C       0.531436   -2.010482    1.171786
C       1.297548   -1.390503    2.374417
O      -0.444116   -1.183389    0.571577
C      -0.100180    0.030273   -0.031829
H      -0.091525    1.202620    1.840784
H      -0.514561    2.203121    0.377343
H       1.457678    1.304785   -0.838837
H       3.315189    0.417106    0.140423
H       2.686582    1.058989    1.643901
H       3.473328   -1.294601    1.806188
H       1.888377   -1.880206   -0.638627
H       2.328352   -3.118941    0.560288
H       0.000786   -2.944714    1.369957
H       1.563459   -2.159026    3.106311
H       0.817159   -0.562288    2.900562
H      -0.578076    0.092520   -1.006674
