11

O       0.108008    1.350288    0.098988
C       0.074201    0.009957    0.032088
N       0.093582   -0.593657   -1.137808
C       0.057652   -1.936928   -1.139374
C       0.002520   -2.660256    0.037109
N      -0.017245   -2.042158    1.232825
C       0.017778   -0.743281    1.225724
F      -0.000329   -0.101574    2.384453
H       0.144262    1.668714   -0.814226
H       0.073921   -2.427780   -2.107035
H      -0.026604   -3.744429    0.040311
