22

C       0.010009    1.528164   -0.230842
C       0.016569    0.068492    0.239271
C      -1.356226   -0.567427    0.151632
C      -1.860143   -1.209102   -1.120716
C      -1.583113   -2.063484    0.093376
C      -0.440866   -3.061446    0.076493
N      -2.745127   -2.519271    0.822462
C      -3.585662   -3.488818    0.366614
O      -3.512622   -4.028916   -0.716026
H       1.007694    1.971744   -0.158047
H      -0.319430    1.603512   -1.272180
H      -0.670370    2.136099    0.375680
H       0.732367   -0.501022   -0.363418
H       0.381354    0.019254    1.273960
H      -2.117910   -0.031553    0.716301
H      -2.892593   -1.062372   -1.412173
H      -1.166376   -1.301361   -1.950392
H       0.404461   -2.698391   -0.512411
H      -0.083341   -3.271754    1.090979
H      -0.786396   -3.998087   -0.369620
H      -2.853877   -2.221702    1.780357
H      -4.373896   -3.727056    1.110987
