21

C      -0.038355    1.553714   -0.016724
C       1.510019    1.526122    0.008522
C       2.166740    1.472980    1.414370
C       2.172955   -0.032829    1.818191
C       2.445193   -0.722574    0.457456
C       1.465792    0.026575   -0.435456
C      -0.043111   -0.012791    0.026556
C      -0.206591   -0.533081    1.427449
C       0.812260   -0.501374    2.288808
H      -0.552893    2.067775    0.799998
H      -0.416894    1.933780   -0.970502
H       2.013017    2.243685   -0.643590
H       3.200866    1.830130    1.347046
H       1.651639    2.099938    2.147988
H       2.939001   -0.243996    2.568194
H       3.474187   -0.539577    0.123743
H       2.280263   -1.803126    0.495845
H       1.577204   -0.156570   -1.505553
H      -0.742230   -0.495754   -0.661208
H      -1.190095   -0.881471    1.732285
H       0.691725   -0.828109    3.317662
