23

C      -0.778383    1.225053   -0.372273
C       0.096939   -0.016818   -0.302470
C       1.589882    0.086820   -0.723409
C       1.920626   -0.919756    0.403427
O       3.129828   -0.826638    1.115000
C       0.560028   -0.563731    1.077928
C       0.646611    0.344912    2.338183
C       0.369868   -0.910971    3.205443
C      -0.174395   -1.618378    1.935128
H      -0.319044    2.068573    0.154440
H      -0.939153    1.532607   -1.411432
H      -1.763236    1.048627    0.075406
H      -0.382378   -0.832983   -0.857630
H       1.871944   -0.167939   -1.747823
H       1.991506    1.080139   -0.486195
H       1.884709   -1.948822    0.028808
H       3.257760    0.094216    1.364852
H       1.576858    0.891354    2.524460
H      -0.180275    1.060124    2.378287
H       1.301400   -1.367614    3.548172
H      -0.305790   -0.798406    4.056418
H      -1.262900   -1.526904    1.850190
H       0.100189   -2.665481    1.773955
