15

N      -0.138563    1.384244   -0.127236
C      -0.022065    0.146913    0.103588
C      -1.151938   -0.825547   -0.119935
C      -1.239591   -1.823037    1.046592
C       0.074387   -2.568080    1.181335
O       0.190058   -3.688886    1.609568
C       1.291342   -1.796733    0.664308
O       1.126620   -0.379737    0.633216
H       0.735538    1.868255    0.089397
H      -2.070163   -0.251819   -0.243125
H      -0.984079   -1.371324   -1.057983
H      -1.420627   -1.282217    1.985276
H      -2.049511   -2.546462    0.928513
H       2.148490   -1.997261    1.309340
H       1.533068   -2.179451   -0.338775
