22

C       1.117452   -0.667499   -0.944402
C       0.027275   -1.335913   -0.110546
C      -0.794694   -2.355221   -0.889235
O      -0.584128   -2.587359   -2.057862
C      -1.911844   -3.079722   -0.130721
C      -3.068586   -2.164726    0.261589
C      -3.760726   -1.466115   -0.891685
C      -3.856285   -2.517043    1.470808
N      -2.950271   -1.350041    1.489927
H       1.682310    0.047857   -0.340311
H       1.812622   -1.409210   -1.345681
H       0.684942   -0.135994   -1.795799
H       0.455849   -1.848940    0.762595
H      -0.665721   -0.593150    0.306849
H      -2.272046   -3.879079   -0.785750
H      -1.494756   -3.541399    0.773549
H      -4.204015   -2.196593   -1.576875
H      -4.550178   -0.810709   -0.517421
H      -3.058945   -0.855000   -1.469043
H      -4.914557   -2.274323    1.515229
H      -3.573749   -3.403858    2.032441
H      -2.101580   -1.594740    1.994678
