18

C       0.308910    1.554381   -0.361526
O      -0.324102    0.294617   -0.393677
C       0.461703   -0.703885   -0.981560
C       1.653414   -1.291682   -0.153638
C       1.130634   -2.676858   -0.540038
C       1.867185   -3.812919   -1.094840
O       1.299246   -3.853482    0.223816
C      -0.213833   -2.095790   -0.981239
H       1.231959    1.536174    0.237179
H       0.561895    1.907585   -1.373741
H      -0.391443    2.258541    0.093597
H       0.787335   -0.397908   -1.987337
H       2.673951   -1.027580   -0.438963
H       1.505625   -1.099678    0.913699
H       1.390756   -4.464341   -1.826970
H       2.955951   -3.789259   -1.132274
H      -0.951809   -2.149126   -0.175567
H      -0.659315   -2.453817   -1.911321
