17

C      -0.119615    1.589194    0.045409
C       0.024275    0.068637    0.033082
C       0.818113   -0.434148    1.253357
O      -1.295110   -0.467119    0.048281
C       0.709612   -0.417873   -1.226844
N       1.466111    0.308108   -2.001809
O       1.867301   -0.591409   -3.006583
C       1.293088   -1.754087   -2.708099
N       0.572047   -1.733951   -1.634744
H       0.857706    2.075208    0.011887
H      -0.705284    1.921730   -0.814173
H      -0.638243    1.890953    0.958979
H       0.283652   -0.155007    2.165279
H       0.915216   -1.523803    1.225899
H       1.822120    0.000126    1.281079
H      -1.224699   -1.408342   -0.154590
H       1.478937   -2.582349   -3.376298
