18

C       0.043370    1.529597   -0.097855
C       0.018161    0.008515   -0.102990
C      -1.365265   -0.531798    0.232581
C       0.711251   -0.743022   -1.269535
C       1.288188   -1.692535   -0.150481
C       2.340627   -0.648220    0.138870
N       1.017946   -0.656409    0.849138
C       2.130785   -0.139034   -1.258757
O       2.850001    0.325367   -2.096873
H       1.044889    1.926940   -0.283498
H      -0.622985    1.924662   -0.871932
H      -0.299754    1.908958    0.869812
H      -2.103212   -0.166748   -0.488714
H      -1.383138   -1.625243    0.217147
H      -1.667000   -0.201172    1.231646
H       0.220862   -0.999908   -2.205261
H       1.318994   -2.760987    0.008298
H       3.236588   -0.713669    0.740407
