19

O       0.023698    1.360750   -0.191084
C       0.076138   -0.019230    0.119866
C      -1.321387   -0.621808    0.091152
O      -1.947950   -0.355299   -1.191257
C      -2.337896   -1.677982   -1.612099
C      -1.073162   -2.529164   -1.355525
C      -1.450277   -2.155197    0.120943
O      -0.897962   -2.724573    1.258193
C      -2.945226   -2.296917   -0.330507
H      -0.483885    1.426126   -1.009175
H       0.744822   -0.558865   -0.567403
H       0.492034   -0.109536    1.128231
H      -1.920825   -0.158097    0.884749
H      -2.854509   -1.630875   -2.567454
H      -1.225656   -3.591045   -1.562698
H      -0.129768   -2.180383   -1.776612
H      -1.020823   -3.678227    1.218833
H      -3.705020   -1.718853    0.199719
H      -3.254503   -3.336645   -0.460396
