15

N       0.003129    1.374060    0.148303
C      -0.064080    0.006970    0.058106
C      -1.206949   -0.745830    0.037327
C      -1.142675   -2.167293   -0.000238
O      -2.343085   -2.823960   -0.009980
C       0.065914   -2.788261   -0.021113
N       1.212433   -2.011037   -0.011802
C       1.257740   -0.637713    0.016104
O       2.314448   -0.006732   -0.004046
H       0.922650    1.736681   -0.067266
H      -0.780614    1.914967   -0.177608
H      -2.187573   -0.281602    0.057132
H      -2.186182   -3.773276   -0.035776
H       0.206122   -3.860457   -0.045499
H       2.117431   -2.457198   -0.047036
