23

C      -0.049147    1.515957    0.580805
C       1.154331    0.868052   -0.064912
C       2.521700    0.787814    0.616249
C       2.784202   -0.383321    1.589208
C       2.778384   -1.733300    0.914891
C       1.750653   -2.538546    0.640982
C       0.278471   -2.388704    0.927980
C      -0.258889   -1.000049    1.306396
C      -0.095501    0.051695    0.226106
H       0.030752    1.752344    1.639059
H      -0.635868    2.231940    0.014722
H       1.245780    1.100851   -1.122645
H       3.282018    0.730404   -0.171933
H       2.715184    1.728542    1.147369
H       3.775644   -0.222810    2.028731
H       2.085021   -0.345577    2.426821
H       3.758910   -2.070215    0.580376
H       1.990559   -3.472427    0.132543
H      -0.266492   -2.737463    0.038239
H       0.001161   -3.104022    1.717408
H      -1.333950   -1.103781    1.505991
H       0.175309   -0.660288    2.249405
H      -0.664634   -0.191600   -0.669767
