21

C       0.105000    1.612273   -0.027933
C       0.007466    0.082487    0.033547
C       0.637530   -0.631969   -1.199765
C       1.459624   -1.796906   -0.628765
C       1.369659   -3.208754   -1.200710
C       2.613654   -2.383624   -1.396335
O       2.877047   -1.806855   -2.642848
C       1.524736   -1.552605    0.835336
C       0.747049   -0.534639    1.201863
H       1.150324    1.932607   -0.096144
H      -0.425894    2.004408   -0.901983
H      -0.332033    2.075654    0.863372
H      -1.058728   -0.178707    0.112181
H      -0.118119   -0.963354   -1.916061
H       1.301223    0.054918   -1.735009
H       1.404591   -4.054537   -0.521109
H       0.725963   -3.339884   -2.065126
H       3.501781   -2.665426   -0.828654
H       3.119180   -2.511337   -3.252985
H       2.129639   -2.160232    1.500491
H       0.621036   -0.178354    2.219082
