22

C       0.014910    1.607397    0.067765
C      -0.030858    0.079859   -0.018008
C       0.722069   -0.499775   -1.241633
C       2.123456   -0.075848   -1.215402
C       3.275908    0.264899   -1.157516
C       0.619344   -2.051786   -1.358021
C      -0.836956   -2.538414   -1.375127
C       1.355934   -2.561848   -2.604508
H       1.043198    1.970189    0.147203
H      -0.433325    2.065811   -0.821127
H      -0.540901    1.963173    0.940726
H       0.393478   -0.358220    0.893826
H      -1.074992   -0.242425   -0.068075
H       0.258835   -0.076126   -2.146916
H       4.292229    0.570452   -1.122896
H       1.114419   -2.472203   -0.472192
H      -0.869991   -3.619048   -1.546596
H      -1.360121   -2.341265   -0.436404
H      -1.402191   -2.060366   -2.184679
H       2.401166   -2.244687   -2.611364
H       1.328800   -3.655317   -2.647819
H       0.882184   -2.182938   -3.518562
