19

C       0.189208    1.617222   -0.094054
C       1.709037    1.333608    0.083777
C       1.329884   -0.034727    0.669652
C      -0.072612    0.089532    0.038980
O       2.129543   -1.210187    0.385172
C       2.235978   -1.548460    1.776709
C       3.427735   -0.878527    2.479577
O       2.632331    0.302270    2.772941
C       1.458345   -0.286011    2.186743
H      -0.225117    2.182262    0.744660
H      -0.124330    2.094599   -1.023686
H       2.214666    1.208222   -0.877845
H       2.302167    1.989677    0.723717
H      -0.929346   -0.250175    0.628037
H      -0.090226   -0.408274   -0.934539
H       1.991496   -2.589787    1.990585
H       3.759608   -1.366889    3.404297
H       4.286126   -0.665136    1.834357
H       0.573104   -0.208402    2.821314
