23

C       0.270176    1.535999    0.310514
C      -0.075801    0.065801    0.031469
C       0.565558   -0.466348   -1.220846
C       2.021903   -0.907937   -1.293908
C       0.931959   -1.862059   -1.687125
C       0.713098   -3.244425   -1.164220
O       0.533824   -1.593868   -3.039099
C       0.081575   -0.256803   -2.662989
C      -1.413676   -0.118740   -2.870614
H       1.351812    1.670803    0.412106
H      -0.068530    2.185213   -0.503975
H      -0.203726    1.884946    1.233287
H       0.243662   -0.548912    0.882620
H      -1.165423   -0.048049   -0.030284
H       2.689486   -0.514416   -2.056595
H       2.484724   -1.088345   -0.327320
H       0.969915   -3.299303   -0.102264
H      -0.329643   -3.552551   -1.289903
H       1.345491   -3.961580   -1.700205
H       0.621870    0.508568   -3.236988
H      -1.960741   -0.871055   -2.294638
H      -1.760631    0.875680   -2.568328
H      -1.654071   -0.256901   -3.929052
