15

N      -0.131202    1.439272   -0.031599
C       0.031753    0.047839   -0.022496
C       0.137159   -1.080239   -0.994925
O       1.236471   -1.712111   -0.384233
C       0.916465   -0.977483    0.831812
C      -0.380368   -1.655671    1.331308
C      -1.024463   -1.065415    0.074817
C      -2.390802   -0.961297   -0.292227
N      -3.502338   -0.841641   -0.598193
H       0.375129    1.900444   -0.777262
H      -1.102311    1.724927   -0.049377
H      -0.043588   -1.189403   -2.056256
H       1.775247   -0.781507    1.467788
H      -0.350621   -2.742631    1.439568
H      -0.770236   -1.180298    2.233643
