23

C       0.133875    1.599288   -0.010517
C      -0.005855    0.068733    0.039410
C       0.593332   -0.635393   -1.202521
C      -0.102608   -0.266941   -2.499236
C       0.422763    0.820319   -3.411600
C       0.469257   -0.621069   -3.855670
C       1.785052   -1.349152   -4.028660
C       0.694341   -0.459086    1.275408
O       0.183655   -1.122582    2.140200
H       1.188454    1.897980   -0.037721
H      -0.348680    2.003146   -0.903011
H      -0.324804    2.065168    0.867086
H      -1.062220   -0.207438    0.132328
H       1.662989   -0.399935   -1.264611
H       0.523996   -1.720485   -1.049079
H      -1.186550   -0.336844   -2.434112
H      -0.279517    1.498616   -3.884448
H       1.366317    1.283924   -3.137945
H      -0.277756   -0.899296   -4.595184
H       2.536769   -1.018453   -3.306214
H       1.663085   -2.431595   -3.908353
H       2.195470   -1.171738   -5.028768
H       1.776553   -0.183222    1.330567
