18

C       0.242268    1.536542   -0.401022
C       0.068279    0.065775   -0.089051
C       1.250002   -0.874365   -0.049544
C       0.494719   -0.561844    1.217574
C       1.154238    0.261101    2.328849
C       0.165238    0.933245    3.176661
C      -0.664812    1.480597    3.848830
C       2.041998   -0.595464    3.137789
N       2.742660   -1.277816    3.751990
H       1.210619    1.920844   -0.066020
H       0.190908    1.704216   -1.481825
H      -0.539366    2.141077    0.070719
H      -0.848599   -0.355695   -0.492770
H       1.160931   -1.869395   -0.469977
H       2.236641   -0.434511   -0.163614
H      -0.149781   -1.341130    1.610565
H       1.795705    1.024816    1.871113
H      -1.392369    1.965739    4.451873
