21

C      -0.444178    0.962002   -0.087211
O       0.519937   -0.053381    0.110309
C       0.932706   -0.644605   -1.082535
C       1.504008   -2.015481   -1.072443
C       0.142968   -1.731862   -1.760114
C      -0.575121   -2.602132   -0.714640
O      -1.277786   -3.708204   -1.233906
C       0.806419   -2.898994   -0.019421
C       1.238681   -4.359742   -0.039653
H      -0.043331    1.785534   -0.697779
H      -1.347196    0.574526   -0.579846
H      -0.710280    1.350383    0.898484
H       1.414364    0.052495   -1.772507
H       2.471553   -2.231422   -1.514003
H      -0.123209   -1.691905   -2.811493
H      -1.297231   -2.076156   -0.084606
H      -0.706240   -4.162051   -1.862215
H       0.876869   -2.505617    0.998867
H       1.252382   -4.774570   -1.054634
H       2.253235   -4.461042    0.359614
H       0.569538   -4.978160    0.565045
