17

N       0.027492    1.294600    0.077388
C      -0.059781   -0.061747    0.028683
N      -1.164793   -0.715979    0.007368
C      -1.011295   -2.172915    0.018083
C       0.013601   -2.615577    1.102200
C       1.109917   -2.278592    0.037247
C       0.030781   -2.629171   -1.043957
C       1.284588   -0.781282    0.019755
O       2.334716   -0.181459   -0.023028
H       0.931695    1.692236   -0.121095
H      -0.796727    1.835417   -0.124505
H      -1.999024   -2.634840    0.012088
H       0.012958   -2.057575    2.041862
H      -0.015600   -3.689474    1.304641
H       2.071901   -2.791586    0.045755
H       0.006255   -3.705481   -1.234424
H       0.046163   -2.082669   -1.990291
