20

C      -0.096781    1.597348    0.172509
C      -0.006991    0.080385    0.090260
C       0.947402   -0.563969   -0.986645
C       1.684976   -1.284386    0.150830
C       2.312572   -2.654254    0.101466
C       3.550841   -2.692854   -0.674852
C       4.562710   -2.708130   -1.322475
N       2.215223   -0.207317    1.018785
C       0.803785   -0.654902    1.171326
H       0.898070    2.028747    0.310271
H      -0.531110    2.015109   -0.742273
H      -0.726446    1.911224    1.012818
H      -1.005106   -0.361283    0.007596
H       0.421998   -1.241872   -1.663655
H       1.563452    0.128447   -1.564915
H       2.507881   -3.000708    1.125793
H       1.594511   -3.365856   -0.327991
H       5.459203   -2.722771   -1.891151
H       2.751655   -0.653395    1.763373
H       0.452031   -1.036898    2.123509
