23

C       0.153167    1.508563    0.294957
C      -0.090294    0.030075   -0.019869
C       0.795318   -0.495326   -1.154370
C       0.553610   -1.975174   -1.472708
C       1.417163   -2.507214   -2.614111
C       2.835805   -2.959555   -2.292471
C       1.786554   -3.983947   -2.613524
C       1.195808   -1.890507   -3.896519
C       0.992749   -1.369073   -4.962133
H       1.191187    1.682667    0.599844
H      -0.041685    2.136314   -0.581630
H      -0.494543    1.857594    1.105355
H       0.080535   -0.569820    0.884346
H      -1.145363   -0.118896   -0.285653
H       0.622354    0.098282   -2.060685
H       1.852099   -0.349887   -0.892069
H       0.751637   -2.581402   -0.579412
H      -0.503341   -2.129394   -1.725156
H       3.605627   -2.764756   -3.029274
H       3.159038   -2.857997   -1.261759
H       1.388960   -4.588621   -1.805328
H       1.837888   -4.486205   -3.572099
H       0.819662   -0.911026   -5.904025
