17

C       0.058061    1.421934   -0.019454
N       0.019814   -0.026307   -0.045316
C      -1.096167   -0.638222    0.054842
C      -1.140189   -2.097567    0.029358
C      -2.312077   -2.724157    0.134873
O      -3.495828   -2.047008    0.268297
C      -3.416620   -0.678963    0.288340
C      -4.774548   -0.070605    0.438013
N      -2.350897    0.007902    0.194795
H       0.707310    1.744057    0.804409
H       0.532289    1.779846   -0.941964
H      -0.920147    1.902063    0.088468
H      -0.216922   -2.651422   -0.075241
H      -2.469147   -3.794560    0.128800
H      -5.244218   -0.416753    1.364359
H      -4.686591    1.014450    0.451126
H      -5.421539   -0.381252   -0.388673
