21

O      -2.165599    1.487359   -1.189114
C      -2.286893    0.071570   -1.217237
C      -1.558316   -0.476205    0.006459
C      -1.522256   -2.003883    0.043990
O      -0.781135   -2.473443   -1.073973
C      -1.296161   -2.752132    1.409046
C      -2.768034   -2.399347    1.773622
C      -2.810271   -2.851176    0.284928
C      -1.872913   -4.024182    0.715575
H      -2.605674    1.840411   -1.967691
H      -3.344208   -0.237567   -1.186209
H      -1.847022   -0.354934   -2.129276
H      -0.524192   -0.103371   -0.015188
H      -2.010571   -0.048114    0.903088
H       0.069293   -2.021743   -1.075266
H      -0.421201   -2.688389    2.059610
H      -3.247797   -3.082859    2.477486
H      -3.017057   -1.365269    2.011583
H      -3.684907   -2.909952   -0.365158
H      -1.267348   -4.483623   -0.061399
H      -2.321013   -4.763326    1.383971
