20

C      -0.586918    1.349020    0.248257
C      -0.096888   -0.071493    0.050473
C       0.566737   -0.650412   -1.157190
C       1.337665    0.199318   -2.138630
O       1.468611    1.595084   -1.820422
C       2.533774    0.712940   -1.455312
C       2.497734    0.218340   -0.009920
C       2.674088    1.291171    1.064145
N       1.274966   -0.614067    0.144703
H       0.003124    2.090111   -0.280835
H      -1.620068    1.411350   -0.113004
H      -0.605792    1.588731    1.317250
H      -0.768258   -0.774641    0.547595
H       0.265705   -1.627101   -1.533549
H       1.301769   -0.032614   -3.199255
H       3.485696    0.903371   -1.948125
H       3.330902   -0.493132    0.085374
H       1.961741    2.108880    0.942529
H       2.536488    0.853689    2.056745
H       3.684064    1.710552    1.016008
