21

O       0.098140    1.400251   -0.042357
C       0.006765   -0.009357    0.032953
C      -1.429748   -0.458191    0.029789
C      -2.450940    0.399186    0.031969
C      -3.897355   -0.021098    0.021551
C      -4.068372   -1.507739   -0.324587
C      -3.042364   -2.361043    0.423527
O      -3.172107   -3.747928    0.133612
C      -1.624808   -1.957136    0.024569
H       1.027661    1.640651   -0.004552
H       0.530512   -0.489783   -0.813705
H       0.494950   -0.392114    0.947592
H      -2.239038    1.463192    0.045303
H      -4.345991    0.191788    1.003892
H      -4.459678    0.596651   -0.689865
H      -5.085459   -1.842383   -0.083001
H      -3.925731   -1.665371   -1.400685
H      -3.163864   -2.187059    1.506552
H      -4.065356   -4.016866    0.370871
H      -1.420821   -2.368418   -0.974631
H      -0.904739   -2.441206    0.696897
