13

C      -0.072593    1.535336   -0.041406
C       0.018059    0.028738    0.020177
C       1.314660   -0.680714   -0.223843
C       0.721866   -0.672686    1.179979
C       1.356768    0.097642    2.211198
N       1.863934    0.722252    3.043237
H       0.836249    2.005258    0.344849
H      -0.213656    1.867981   -1.074910
H      -0.915330    1.904842    0.551330
H      -0.873442   -0.494700   -0.313985
H       1.315312   -1.629320   -0.748048
H       2.199681   -0.074347   -0.380940
H       0.282614   -1.598952    1.534169
