17

C       0.172807    1.506447    0.236550
C      -0.098852    0.024518   -0.080136
C       0.580069   -0.463739   -1.320873
C       0.076238   -0.810296   -2.549951
C       1.178182   -1.187416   -3.383355
C       2.327648   -1.056232   -2.625223
N       1.951350   -0.620126   -1.390730
C       1.119632   -1.619297   -4.730421
N       1.061631   -1.971443   -5.832989
H       1.240646    1.696080    0.389009
H      -0.162780    2.146770   -0.584176
H      -0.351795    1.810082    1.147380
H       0.201324   -0.592009    0.778024
H      -1.174584   -0.132014   -0.203999
H      -0.962885   -0.802665   -2.838212
H       3.357695   -1.244303   -2.878252
H       2.586325   -0.445690   -0.630150
