14

C      -0.011669    1.416249    0.063678
C       0.012798   -0.063297   -0.048296
N      -0.036683   -0.780915   -1.141887
C       0.016736   -2.074117   -0.694983
O      -0.010865   -3.111760   -1.532922
C       0.098374   -2.106899    0.677007
O       0.094280   -0.779498    1.078396
C       0.177389   -3.178144    1.637004
O       0.245631   -3.045525    2.841505
H       0.893701    1.779724    0.559817
H      -0.079060    1.853153   -0.932277
H      -0.867589    1.742746    0.662677
H      -0.071517   -2.754866   -2.428849
H       0.169702   -4.177802    1.152073
