21

C      -0.184476    1.579060   -0.023567
C       0.042962    0.068568   -0.014179
C       0.830599   -0.503804   -1.204719
C       2.351724   -0.124862   -1.157323
C       2.608053   -1.442490   -0.428376
C       1.215408   -1.944395   -0.761754
C       1.582263   -1.672874    0.672127
C       0.824782   -0.477767    1.227085
O       1.756467    0.443599    1.792188
H       0.760173    2.129422   -0.028076
H      -0.753230    1.881047   -0.908945
H      -0.758628    1.902812    0.853493
H      -0.936420   -0.430178   -0.009248
H       0.339075   -0.374663   -2.169898
H       2.789055   -0.137078   -2.159369
H       2.633203    0.798864   -0.646103
H       3.541335   -1.993478   -0.416885
H       0.871153   -2.889439   -1.160669
H       1.795363   -2.510278    1.326822
H       0.117808   -0.800308    2.005736
H       1.255535    1.145053    2.220278
