21

C       0.109731    1.457420   -0.101944
C       0.051318   -0.028270    0.035166
C      -0.992147   -0.838089    0.739057
C       0.472804   -1.018328    1.101565
C       1.203228   -1.738725   -0.029080
C       0.931266   -3.199184   -0.340803
C       1.540182   -3.635134   -1.676879
O       1.337909   -5.014339   -1.947143
O       0.644990   -0.812801   -1.014041
H       1.139727    1.799367   -0.243405
H      -0.478138    1.784950   -0.967092
H      -0.302342    1.941605    0.788047
H      -1.568411   -0.307547    1.491184
H      -1.542168   -1.604874    0.201225
H       0.855361   -0.861028    2.101361
H       2.286738   -1.564720    0.035608
H       1.350192   -3.817645    0.462784
H      -0.150968   -3.378708   -0.357785
H       1.146469   -3.001104   -2.483975
H       2.626953   -3.495596   -1.655636
H       0.393328   -5.152237   -2.069138
