21

C      -0.134400    1.484896    0.068638
C       0.032179   -0.030034    0.117127
C       1.235948   -0.464809   -0.802885
C       2.117417   -0.451211    0.511408
C       0.793142   -0.673940    1.273800
C      -0.170030   -0.392791    2.463739
C      -1.086550   -1.301900    1.545148
C       0.178343   -2.116263    1.256906
O      -1.278463   -0.618293    0.277566
H       0.827691    2.006548    0.084490
H      -0.640402    1.749780   -0.866350
H      -0.750347    1.855066    0.890866
H       1.140291   -1.464080   -1.226069
H       1.513170    0.235491   -1.593865
H       2.880031   -1.225143    0.616468
H       2.577530    0.525568    0.678779
H       0.065276   -0.903260    3.399644
H      -0.468751    0.638460    2.655616
H      -2.033775   -1.718763    1.883290
H       0.180374   -2.699257    0.335027
H       0.539998   -2.711845    2.098337
