20

C       0.049878    1.349314    0.388745
C       0.006689   -0.061839   -0.208894
C      -1.367127   -0.692241   -0.084531
C      -1.681935   -2.155476   -0.112506
C      -0.598893   -2.995491    0.594119
C      -0.864730   -2.159122    1.841359
N      -0.508250   -2.207345    3.056827
O       0.466770   -3.210285    3.249645
C      -1.912192   -1.331149    1.185245
H       1.041621    1.797415    0.275235
H      -0.672996    2.010495   -0.102298
H      -0.191153    1.326557    1.456265
H       0.284990   -0.024407   -1.270216
H       0.758140   -0.685761    0.284830
H      -2.145269   -0.105697   -0.573185
H      -2.440000   -2.568532   -0.765909
H      -0.899784   -4.034080    0.759743
H       0.410180   -2.988119    0.173326
H       0.626838   -3.152980    4.197346
H      -2.831906   -0.996560    1.648011
