21

C      -0.450863    1.366851    0.059979
C       0.066173   -0.055422   -0.038390
C       0.960109   -0.336481   -1.262967
C       1.992268   -1.300127   -0.731515
C       1.884193   -1.502083    0.581104
C       0.749836   -0.731457    1.207040
C       1.146336    0.082094    2.431139
C      -0.565800   -1.545911    1.288532
O      -1.027043   -1.015320    0.033104
H       0.375133    2.083920    0.113196
H      -1.052145    1.605935   -0.823749
H      -1.084688    1.499297    0.941228
H       0.349545   -0.767916   -2.065316
H       1.421052    0.575084   -1.667496
H       2.736449   -1.764776   -1.369823
H       2.523343   -2.154786    1.167961
H       1.964992    0.772227    2.201949
H       0.306137    0.665809    2.819925
H       1.489584   -0.577515    3.236757
H      -0.472707   -2.638048    1.267361
H      -1.223339   -1.257292    2.121631
