18

C      -0.178976    0.622486   -0.199045
O       1.067777    0.365479    0.422717
C       0.972466   -0.506312    1.535583
C       0.669320   -1.930191    1.164863
N      -0.330856   -2.655577    1.646174
C      -0.160072   -3.853015    1.027718
N       0.865964   -3.913673    0.194312
N       1.393125   -2.669167    0.290992
C       2.583549   -2.312872   -0.458458
H      -0.882393    1.094593    0.502203
H       0.015147    1.307791   -1.026855
H      -0.642759   -0.293096   -0.590360
H       1.940657   -0.438481    2.043686
H       0.193481   -0.182827    2.238624
H      -0.811271   -4.699765    1.186100
H       2.519984   -2.766276   -1.448632
H       2.625462   -1.227661   -0.549145
H       3.483189   -2.683603    0.042789
