20

O      -0.127185    1.471164    0.219599
C      -0.023076    0.056595    0.260527
C      -1.372816   -0.515731   -0.165662
C      -1.393432   -2.006235   -0.206543
C      -2.461076   -3.024030   -0.056555
C      -1.956947   -3.833333   -1.248191
C      -0.595615   -3.131073   -1.001655
C      -0.211441   -3.652142    0.390149
N      -1.370358   -2.909281    0.985206
H       0.697705    1.843599    0.543889
H       0.766687   -0.304876   -0.418736
H       0.219594   -0.302883    1.271864
H      -2.139471   -0.169692    0.536973
H      -1.633029   -0.106950   -1.150106
H      -3.472920   -2.904062    0.308848
H      -1.977690   -4.927892   -1.201399
H      -2.432548   -3.493545   -2.171955
H       0.125378   -3.003624   -1.807453
H      -0.213458   -4.736649    0.554906
H       0.712639   -3.221354    0.784707
