16

N       0.068738   -1.163350   -0.091993
C       0.063346   -0.006948   -0.020238
C       0.040321    1.409255    0.105928
N       0.232860    2.301062   -1.067905
C       1.176679    2.403920    0.047070
C       0.525609    3.263800    1.153237
C      -0.544709    4.321126    0.748949
N      -1.607068    3.269085    0.756965
C      -0.651083    2.256731    1.228795
H       0.668153    1.745630   -1.804001
H       2.232922    2.208728   -0.091006
H       1.158706    3.468696    2.014325
H      -0.675612    5.098447    1.509557
H      -0.414685    4.786437   -0.231309
H      -2.363098    3.446494    1.406047
H      -0.890764    1.687176    2.127618
