18

C      -0.099166    1.553864    0.060114
C       0.075964    0.070425   -0.069668
C      -0.832142   -0.819733   -0.927906
C      -0.858715   -1.751192    0.289720
O      -1.357341   -2.801645    0.554429
N      -0.099568   -0.868422    1.153552
C       1.232946   -0.662840    0.471580
C       1.976798   -1.824257   -0.154198
O       2.486692   -2.697103    0.835194
H       0.275551    2.064294   -0.834442
H      -1.155716    1.814905    0.179080
H       0.448692    1.937920    0.924694
H      -1.814911   -0.371216   -1.099878
H      -0.454749   -1.218880   -1.871964
H       1.872044   -0.077251    1.129823
H       1.353413   -2.361312   -0.882276
H       2.846092   -1.435874   -0.696088
H       1.736526   -3.041143    1.334058
