21

C      -0.264222    1.464671   -0.031092
C       0.116205   -0.002578    0.035894
O       0.437037   -0.531259    1.081537
C       0.073113   -0.766422   -1.258994
O      -0.010536    0.033613   -2.410290
C       0.811663   -2.090121   -1.340394
C      -0.691879   -2.105787   -1.331374
C      -1.414227   -2.640916   -0.109389
C      -1.407907   -2.395287   -2.638625
H       0.473492    2.024515   -0.615964
H      -1.222423    1.595309   -0.542619
H      -0.307859    1.867476    0.981246
H       0.881104    0.306684   -2.651075
H       1.320577   -2.296445   -2.276865
H       1.334207   -2.391034   -0.438797
H      -0.888975   -2.402592    0.815156
H      -2.430348   -2.234580   -0.046390
H      -1.501101   -3.730837   -0.186075
H      -1.487625   -3.478728   -2.782720
H      -2.424375   -1.986766   -2.624608
H      -0.887077   -1.965645   -3.494497
