18

C       0.079297    1.364328   -0.468570
C      -0.017964    0.035955    0.289727
O       0.298823    0.253236    1.651700
C      -1.378374   -0.599885    0.145101
N      -2.086344   -0.848007    1.237635
N      -3.228806   -1.429115    0.782802
C      -3.249979   -1.548789   -0.568407
N      -4.367096   -2.053052   -1.234002
C      -2.055981   -1.021933   -1.024953
H       1.072786    1.796731   -0.321096
H      -0.082595    1.220911   -1.541826
H      -0.666967    2.069167   -0.090874
H       0.725927   -0.656235   -0.140950
H      -0.427465   -0.122723    2.167357
H      -3.971806   -1.632957    1.428703
H      -4.705150   -2.929313   -0.854016
H      -4.197256   -2.162010   -2.224537
H      -1.720175   -0.971583   -2.047986
