22

C       0.046743    1.596425    0.279856
C       0.174679    0.081961    0.102711
C       0.400817   -0.334302   -1.358157
C       0.523637   -1.853830   -1.494974
C      -0.047424   -2.797391   -2.528795
C       0.152991   -2.362440   -4.007844
N       0.812082   -1.030710   -4.048738
C       1.609514   -2.262457   -3.811115
C       1.468731   -2.693299   -2.324011
H       0.950845    2.112191   -0.063011
H      -0.795286    1.992306   -0.299142
H      -0.113640    1.866828    1.328560
H       1.004047   -0.290761    0.719598
H      -0.730459   -0.409849    0.485032
H      -0.421815    0.034636   -1.976952
H       1.300553    0.152871   -1.744022
H       0.425530   -2.339497   -0.521685
H      -0.699182   -3.620540   -2.262251
H      -0.417967   -2.731884   -4.849545
H       0.928787   -0.792251   -5.033992
H       2.426702   -2.536618   -4.465319
H       2.131334   -3.426206   -1.879924
