17

O       0.056832    0.052890    0.086912
C      -0.004659    1.252720    0.068233
C      -1.286296    2.088775   -0.095297
C      -0.781000    3.502447   -0.052833
C       0.544348    3.581396    0.121945
C       1.183302    2.217738    0.210692
C       1.314558    4.836296    0.189740
C       2.543108    4.986627    0.993358
O       2.618870    4.831392   -0.418785
H      -1.788239    1.827176   -1.035955
H      -1.997399    1.844514    0.704887
H      -1.433010    4.362647   -0.160060
H       1.697868    2.027224    1.161147
H       1.923347    2.040270   -0.578273
H       0.738156    5.740419   -0.008421
H       2.805655    5.972688    1.374881
H       2.916444    4.148617    1.579369
