23

C       0.522424    1.340301    0.196805
C      -0.005383   -0.079838   -0.002849
C      -1.532447   -0.091328   -0.035621
C       0.675400   -0.837045   -1.193625
C       1.420756   -1.770774   -0.198391
C       2.922762   -1.568180   -0.121316
O       3.389057   -2.286895    1.027905
C       0.619369   -1.131504    0.979271
O       1.365921   -0.584582    2.040981
H       1.614043    1.370865    0.234449
H       0.190143    1.984403   -0.625852
H       0.155787    1.766850    1.135462
H      -1.914679    0.523991   -0.858560
H      -1.921807   -1.106449   -0.171336
H      -1.947699    0.303876    0.898728
H      -0.028432   -1.361760   -1.844389
H       1.322635   -0.218365   -1.823666
H       1.223302   -2.837814   -0.332953
H       3.402674   -1.944156   -1.037147
H       3.163589   -0.500314   -0.028773
H       4.333562   -2.129526    1.122800
H      -0.148710   -1.820193    1.362539
H       2.098117   -1.196198    2.201760
