19

C       0.079143    1.470379    0.031022
C       0.005445   -0.020549   -0.025546
C      -0.125432   -0.801270   -1.101890
C      -0.079631   -2.253926   -0.773877
C       1.227941   -2.736369   -0.173470
C       0.101721   -2.315730    0.730722
C       0.082535   -0.869608    1.254643
C       1.215424   -0.529275    2.113171
C       2.151013   -0.238929    2.810768
H       1.020590    1.801290    0.484725
H       0.001883    1.911082   -0.966351
H      -0.726881    1.884202    0.651425
H      -0.218663   -0.431577   -2.117708
H      -0.707695   -2.956720   -1.310240
H       1.441702   -3.799410   -0.216776
H       2.096431   -2.092627   -0.264251
H      -0.385666   -3.075034    1.329457
H      -0.837386   -0.709208    1.838510
H       2.975450    0.007795    3.432646
