17

N       0.186509    1.416026   -0.100931
C      -0.002409    0.020066   -0.028769
C      -1.109376   -0.793114   -0.056003
C      -2.608329   -0.823429    0.014909
C      -2.858959   -2.340014   -0.264901
O      -1.635314   -3.060551    0.015994
C      -0.640734   -2.128410   -0.032410
C       0.723500   -2.150103    0.008232
N       1.101271   -0.801364    0.025358
H       0.451683    1.815736    0.794999
H      -0.663789    1.875348   -0.402460
H      -2.990349   -0.532299    1.002329
H      -3.124329   -0.206092   -0.727658
H      -3.647779   -2.774362    0.353451
H      -3.113778   -2.493897   -1.321280
H       1.449376   -2.941743    0.064066
H       2.026836   -0.469113   -0.184480
