21

C      -0.636935    1.290509    0.059695
C       0.020023   -0.093978    0.093413
O       0.632062   -0.279269   -1.174916
C       0.860453   -1.613963   -1.583576
C       2.235013   -2.168282   -1.318964
C       3.238029   -1.607054   -0.648431
C       3.197020   -0.264563    0.061940
C       2.284855   -0.270205    1.274952
C       0.954376   -0.221617    1.273796
H       0.123260    2.061163   -0.095718
H      -1.363519    1.343873   -0.755455
H      -1.149081    1.497787    1.003704
H      -0.778743   -0.848094    0.213297
H       0.101382   -2.285653   -1.146267
H       0.687913   -1.631845   -2.669845
H       2.391383   -3.147615   -1.770361
H       4.170082   -2.161989   -0.573539
H       4.209062   -0.003765    0.384662
H       2.873927    0.506815   -0.639839
H       2.781903   -0.361307    2.238352
H       0.435609   -0.250548    2.231258
