16

C      -0.604549    1.607207    0.176915
C      -0.048012    0.192546   -0.005330
C       0.890354   -0.092596   -1.237874
C       1.930010   -0.793868   -0.322260
O       3.265818   -0.463708   -0.562463
C       1.217878   -0.137598    0.871276
O       1.560499    0.218770    1.955286
C      -1.078213   -0.825604    0.146833
N      -1.886013   -1.644576    0.270794
H       0.202808    2.338579    0.087879
H      -1.364035    1.825993   -0.578331
H      -1.055926    1.712669    1.166280
H       0.466568   -0.690070   -2.043015
H       1.297459    0.841119   -1.630640
H       1.753201   -1.881816   -0.303606
H       3.788487   -0.740277    0.198686
