15

C      -0.208043    1.417900   -0.014716
N      -0.032245   -0.035466   -0.004793
C       0.015958   -0.659808   -1.240113
N      -0.085630   -0.014550   -2.323270
O       0.181154   -2.033286   -1.240832
C       0.290201   -2.718748   -0.080132
C       0.248195   -2.143935    1.121795
C       0.076043   -0.696952    1.231973
O       0.027150   -0.094700    2.284977
H       0.615511    1.888016   -0.556368
H      -1.139739    1.675569   -0.522702
H      -0.227374    1.744457    1.022403
H      -0.027446   -0.644868   -3.119475
H       0.413881   -3.779075   -0.264237
H       0.337944   -2.715975    2.033347
