27

C       0.062369    1.537626    0.238337
C       0.155501    0.010717    0.149943
C       0.635911   -0.527792   -1.215502
C       2.147507   -0.285971   -1.409908
C       2.632137   -0.400365   -2.858773
C       0.289885   -2.021920   -1.375879
C      -1.173507   -2.290113   -1.707082
O      -1.360671   -3.686393   -1.806268
C      -2.683782   -4.040366   -2.121817
H       1.027892    2.022903    0.064626
H      -0.642502    1.931518   -0.502623
H      -0.286721    1.852145    1.227003
H       0.830152   -0.365913    0.931259
H      -0.830633   -0.408971    0.380528
H       0.106239    0.032382   -2.002532
H       2.404143    0.712456   -1.038035
H       2.700031   -0.994016   -0.776820
H       3.708941   -0.215878   -2.927334
H       2.444204   -1.392407   -3.281487
H       2.129000    0.332210   -3.500018
H       0.890841   -2.471852   -2.173043
H       0.546794   -2.560640   -0.454768
H      -1.844360   -1.873729   -0.936314
H      -1.442287   -1.800235   -2.660172
H      -3.396109   -3.693871   -1.355298
H      -3.000393   -3.623666   -3.091919
H      -2.729081   -5.131065   -2.176153
