17

C      -0.245869    1.322505   -0.178536
O      -0.167629   -0.101097   -0.150097
C       0.587002   -0.673475   -1.108082
C       0.765419   -2.014015   -1.286124
C       0.251713   -3.240929   -0.599741
N      -1.175929   -3.216150   -0.257959
O       1.610134   -2.139130   -2.371340
C       1.875160   -0.881312   -2.760662
N       1.295925    0.038836   -2.052720
H       0.742562    1.775245   -0.053893
H      -0.676548    1.677018   -1.120464
H      -0.892045    1.599790    0.655494
H       0.450302   -4.103015   -1.245604
H       0.806781   -3.420751    0.330053
H      -1.355432   -2.410758    0.335955
H      -1.716183   -3.052436   -1.103688
H       2.528685   -0.754591   -3.609001
