18

C       0.074034    1.372762    0.040602
N      -0.125573   -0.055818    0.028457
C      -0.044226   -0.952829   -1.020472
O       0.014821   -0.791018   -2.210140
C       0.018988   -2.136832   -0.019596
O       1.384866   -2.455683    0.326561
C       1.386668   -1.515709    1.424232
C      -0.060215   -1.057565    1.100731
C      -1.092620   -0.948877    2.196113
H       1.033467    1.646621    0.498485
H       0.074175    1.711795   -0.998110
H      -0.729187    1.886281    0.580153
H      -0.624151   -3.009370   -0.139818
H       1.488376   -2.036003    2.384366
H       2.172020   -0.757203    1.331319
H      -0.902664   -0.075342    2.830763
H      -2.096896   -0.847237    1.774277
H      -1.071876   -1.834584    2.837429
