19

C      -0.473867    1.271552   -0.051051
O       0.184261    0.023537    0.119207
C       0.766895   -0.455835   -1.026090
C      -0.018700   -1.064844   -2.175333
C       1.014613   -1.877327   -1.442892
O       2.331352   -1.583698   -1.925058
C       2.225762   -0.206484   -1.437264
C       2.612929    0.788606   -2.514720
O       3.920314    0.522535   -2.987988
H       0.230297    2.066470   -0.333358
H      -1.257801    1.208050   -0.817366
H      -0.926235    1.523841    0.910018
H      -1.042517   -1.302879   -1.901448
H       0.136010   -0.786602   -3.213361
H       0.846983   -2.831063   -0.958326
H       2.867186   -0.091739   -0.555184
H       1.876665    0.767475   -3.332218
H       2.623237    1.802958   -2.099588
H       3.929006   -0.409279   -3.238389
