19

C      -0.002096    1.438527   -0.012750
C       0.004874   -0.057855   -0.048618
C      -0.944351   -0.970719    0.727747
C       0.554915   -1.067037    0.939660
C       0.564312   -2.103583   -0.221592
C      -1.009919   -2.190322   -0.223598
C      -1.065385   -1.638069   -1.669368
C       0.273775   -0.960119   -1.279727
O       1.176687   -0.424821   -2.186849
H       0.945111    1.843117   -0.383880
H      -0.807202    1.852320   -0.631517
H      -0.147775    1.803375    1.009782
H      -1.705035   -0.585325    1.395406
H       1.155828   -0.933972    1.829678
H       1.234889   -2.945369   -0.378451
H      -1.561720   -3.076751    0.083572
H      -0.913697   -2.434102   -2.408883
H      -1.909930   -1.007863   -1.965735
H       1.347604   -1.080298   -2.871006
