21

C       0.048120    1.514390   -0.340071
C       1.429769    2.005109    0.141842
C       2.274102    0.728967    0.092868
O       3.467451    0.824786    0.839175
C       4.062833   -0.455003    1.000251
C       3.185917   -1.396522    1.836726
C       1.732261   -1.273809    1.451942
C       1.317995   -0.318941    0.625813
C      -0.089450    0.064761    0.216423
H      -0.764768    2.166978   -0.013298
H       0.022229    1.499711   -1.434983
H       1.838506    2.817636   -0.463911
H       1.384282    2.345376    1.182575
H       2.522072    0.506138   -0.964200
H       4.250666   -0.904643    0.010882
H       5.030661   -0.286632    1.480479
H       3.540106   -2.428066    1.707470
H       3.299350   -1.170353    2.906458
H       1.027291   -1.962870    1.912984
H      -0.766372    0.022602    1.076194
H      -0.504768   -0.613386   -0.537522
