18

N       0.022996   -1.134294   -0.147762
C       0.060114    0.005718    0.033610
C       0.111228    1.448579    0.289738
N       1.280426    2.052507   -0.332501
C       1.375442    3.478901   -0.130276
C       1.649973    4.103958    1.311539
C       2.953398    4.671327    0.750958
N       3.735631    3.498731    0.286693
C       2.697752    4.090423   -0.595310
H      -0.792424    1.902201   -0.137924
H       0.046225    1.598727    1.382887
H       2.133256    1.621488    0.012779
H       0.512853    3.967370   -0.594761
H       0.916044    4.866517    1.580996
H       1.771822    3.396435    2.136196
H       3.449256    5.595832    1.017328
H       4.638037    3.837488   -0.044036
H       2.949721    4.446978   -1.586024
