19

C      -0.002228    1.498212    0.019667
C       0.011169    0.046429    0.001156
C       0.021779   -1.163828   -0.014180
C       0.032852   -2.523997   -0.031369
C       0.043757   -3.734741   -0.046719
C       0.037288   -5.189462   -0.064159
C      -1.381423   -5.789740    0.001172
C      -1.358905   -7.312643   -0.018586
O      -2.701087   -7.765049    0.044631
H       0.990397    1.901612    0.250428
H      -0.308717    1.905298   -0.950698
H      -0.699173    1.879377    0.774813
H       0.544330   -5.543828   -0.972625
H       0.634038   -5.565223    0.778855
H      -1.885620   -5.450832    0.911663
H      -1.975570   -5.429377   -0.844519
H      -0.859804   -7.665596   -0.936701
H      -0.769067   -7.687239    0.834867
H      -2.696756   -8.726481    0.032658
