15

C       0.043828    1.477589   -0.013860
C       1.282509    0.664422    0.029656
C       1.963756    0.388964    1.387470
C       0.867403   -0.349624    2.104545
N       0.691019   -0.868948    3.286830
O      -0.590128   -1.441057    3.217764
C      -1.124309   -1.238330    1.987036
C      -0.237793   -0.542471    1.238665
N      -0.063873   -0.004636   -0.061204
H      -0.284008    1.969372    0.898746
H      -0.240444    1.977558   -0.934553
H       1.891104    0.589610   -0.865047
H       2.854241   -0.234189    1.257009
H       2.275274    1.304933    1.898350
H      -2.110063   -1.644754    1.831702
