14

O       0.004648    0.097727   -0.014199
C      -0.018852    1.293584    0.014962
C      -1.179931    2.305246   -0.031721
N      -0.896275    2.919881    1.323395
C       0.268513    3.531663    0.623577
C      -0.375328    3.463973   -0.779403
N       0.890672    2.944971   -1.345057
C       1.107125    2.339623    0.015028
H      -2.184566    1.962355   -0.263188
H      -1.579935    3.656845    1.493605
H       0.790238    4.380812    1.059109
H      -0.910292    4.258064   -1.300582
H       0.794502    2.255638   -2.092698
H       2.115783    2.061599    0.308939
