25

C      -0.022962    1.616124   -0.078282
C      -0.034365    0.085518   -0.053176
C       0.716040   -0.543344   -1.235305
O       2.065524   -0.075182   -1.287250
C       0.660908   -2.078663   -1.237757
C      -0.781889   -2.645712   -1.350635
C      -0.654359   -3.901653   -2.227431
C       0.406508   -3.491884   -3.258896
C       1.447792   -2.717773   -2.425637
H       1.002360    1.992657   -0.113854
H      -0.545804    1.998011   -0.962297
H      -0.515750    2.031659    0.805931
H       0.424599   -0.277116    0.879141
H      -1.067090   -0.281536   -0.044526
H       0.272118   -0.177943   -2.172546
H       2.511668   -0.393946   -0.494125
H       1.103463   -2.416092   -0.289655
H      -1.237040   -2.844027   -0.376459
H      -1.426186   -1.916629   -1.860373
H      -0.287841   -4.744961   -1.628121
H      -1.604541   -4.208652   -2.674848
H       0.838853   -4.338888   -3.799416
H      -0.048372   -2.830984   -4.007353
H       1.982645   -1.960562   -3.003433
H       2.205177   -3.409471   -2.042063
