25

C       0.301854    1.231603    0.873927
C       0.125412   -0.276870    0.820524
O      -1.079722   -0.558958    0.130703
C      -1.372959   -1.943618   -0.049574
C      -2.816469   -2.196531    0.402985
C      -3.049710   -1.897691    1.884909
C      -1.166124   -2.356016   -1.499986
C      -1.602254   -1.449144   -2.621973
C      -0.134047   -1.703084   -2.381743
H       1.219608    1.489637    1.411045
H       0.361017    1.648629   -0.135648
H      -0.544051    1.699127    1.386155
H       0.983056   -0.745602    0.313269
H       0.085157   -0.694808    1.839355
H      -0.698995   -2.539040    0.587217
H      -3.477751   -1.577602   -0.214704
H      -3.069504   -3.241150    0.182590
H      -4.094393   -2.066046    2.163606
H      -2.428848   -2.536821    2.523558
H      -2.802957   -0.856086    2.108176
H      -1.319281   -3.420415   -1.660668
H      -2.073625   -1.889011   -3.493732
H      -1.976999   -0.470586   -2.344121
H       0.443266   -0.883090   -1.971782
H       0.407922   -2.328572   -3.082732
