19

C      -0.167277    1.595957   -0.020363
C       0.056867    0.097747    0.039261
C       1.255705   -0.617099   -0.693012
C       2.464866    0.119682   -0.073380
C       2.155246    0.125396    1.225371
C       0.795368   -0.609046    1.239013
N       0.988378   -1.740093    0.268826
C       2.012751   -2.739723    0.517059
H       0.741845    2.162472    0.193774
H      -0.525981    1.888503   -1.013539
H      -0.934561    1.895656    0.702206
H      -0.868104   -0.442188   -0.178853
H       1.254036   -0.844442   -1.760124
H       3.317939    0.533670   -0.591566
H       2.683637    0.545325    2.069231
H       0.312279   -0.827982    2.192487
H       1.694068   -3.372357    1.352278
H       2.103727   -3.379527   -0.367107
H       3.006187   -2.327150    0.752036
