16

O       0.172070    1.366445   -0.151159
C       0.050884   -0.000663   -0.089195
C       0.443532   -0.858651    1.188467
N      -0.997378   -0.925204    1.548787
C      -1.255500   -0.853229    0.094797
C      -0.410679   -1.950618   -0.642590
C       0.807965   -2.100230    0.334751
O       1.744847   -1.618986   -0.666938
C       0.607032   -0.921584   -1.210808
H      -0.236276    1.740405    0.639194
H       1.152768   -0.521812    1.944453
H      -1.276105   -1.801881    1.991658
H      -2.253948   -0.600061   -0.258924
H      -0.813142   -2.801118   -1.185261
H       1.117128   -3.026098    0.820373
H       0.711318   -0.567356   -2.234504
