19

O       0.142914    1.420575    0.078703
C      -0.011716    0.038732   -0.027107
C       0.258334   -0.671073    1.318860
O      -1.069766   -1.259485    1.348168
C      -1.348975   -0.766839    0.050230
C      -2.695408   -0.349910   -0.505260
C      -2.161179   -0.763049   -1.919568
C      -0.930911   -1.487152   -1.277465
C       0.412800   -0.710868   -1.321711
H      -0.044126    1.817179   -0.778360
H       1.049446   -1.429496    1.321440
H       0.404113    0.029899    2.146494
H      -3.496231   -1.014596   -0.167254
H      -3.007357    0.686392   -0.345162
H      -2.827112   -1.412321   -2.489918
H      -1.886959    0.084657   -2.554278
H      -0.912731   -2.571830   -1.382223
H       0.528066   -0.056928   -2.194514
H       1.321204   -1.313888   -1.230379
