16

O       0.047605    0.075031   -0.490819
C      -0.014549    1.203441   -0.083300
C      -1.273269    1.997976    0.286785
N      -0.858316    3.291550    0.847106
C      -0.069641    3.165368    2.074915
C       0.630563    3.368989    0.779012
C       1.169755    2.143591    0.119357
C       2.545298    1.632398    0.167125
O       2.049645    2.280587   -1.001959
H      -1.852750    2.169126   -0.628574
H      -1.909839    1.438103    0.978435
H      -0.166544    3.993293    2.770701
H       0.007051    2.185770    2.546974
H       1.061947    4.328008    0.511365
H       3.293029    2.187126    0.731946
H       2.704007    0.559872    0.069769
