21

C      -0.051956    1.572922    0.011249
C       0.065207    0.043158   -0.000210
C       0.708879   -0.455988   -1.303335
O       2.030914    0.040471   -1.496514
C       3.005347   -0.716962   -0.853059
C       4.082900    0.040073   -0.125496
C       3.052524   -0.724687    0.660021
O       2.120307    0.025825    1.370624
C       0.788648   -0.469064    1.255115
H       0.939292    2.029601   -0.017421
H      -0.617831    1.930078   -0.855167
H      -0.562483    1.921067    0.914912
H      -0.946291   -0.391006    0.029107
H       0.708201   -1.556113   -1.338255
H       0.127318   -0.095841   -2.159291
H       3.274838   -1.638702   -1.371607
H       5.103101   -0.324341   -0.159164
H       3.970341    1.117927   -0.116486
H       3.353508   -1.651583    1.151338
H       0.261652   -0.117872    2.149273
H       0.789805   -1.569489    1.278767
