15

C      -0.102988    1.494374    0.047075
C       0.009789   -0.015651   -0.006873
O       1.082009   -0.588835   -0.066920
C      -1.250919   -0.778399    0.016686
C      -1.364247   -2.144832   -0.023635
N      -2.717662   -2.401827    0.020062
C      -3.342756   -1.190891    0.083765
O      -4.682149   -1.146105    0.136837
N      -2.513055   -0.189177    0.084443
H       0.895292    1.932315    0.023016
H      -0.699078    1.860738   -0.794901
H      -0.631680    1.803265    0.954570
H      -0.622262   -2.922037   -0.077647
H      -3.171308   -3.300125    0.008341
H      -4.924800   -0.212337    0.176732
