16

C      -0.027305    1.507010    0.084023
C      -0.046326    0.017741   -0.001213
C       0.059437   -0.783084   -1.064377
C       0.050836   -2.204996   -0.598970
C       0.983601   -2.639032    0.510971
N      -0.491831   -2.262738    0.760767
C      -0.034161   -0.872905    1.224970
C       1.382946   -1.488318    1.372841
O       2.314337   -1.268235    2.092166
H       0.840490    1.857323    0.656165
H       0.012561    1.962873   -0.908260
H      -0.917985    1.882721    0.602335
H       0.151873   -0.489780   -2.101442
H      -0.270200   -3.003658   -1.262830
H       1.361536   -3.652059    0.589836
H      -0.514649   -0.506300    2.131757
