20

C       0.010238    1.511413   -0.055541
C       0.171619   -0.010065   -0.068701
C       0.599859   -0.553177    1.298312
N       0.726864   -1.999438    1.313287
C       1.830617   -2.767849    1.389996
N       1.513839   -4.047419    1.340052
C       0.152340   -4.017340    1.225739
C      -0.687044   -5.247442    1.137067
N      -0.367122   -2.796074    1.204837
H       0.948721    2.012669    0.206980
H      -0.298739    1.879946   -1.037608
H      -0.747816    1.825018    0.670476
H      -0.769395   -0.493315   -0.349495
H       0.915473   -0.307511   -0.817312
H       1.570396   -0.141390    1.593678
H      -0.128901   -0.269379    2.064753
H       2.824328   -2.354694    1.484692
H      -0.551970   -5.873383    2.024763
H      -1.741202   -4.979171    1.049570
H      -0.399881   -5.849969    0.269602
