14

C       0.003261    1.483523    0.034880
N      -0.026990    0.028478   -0.024350
C      -1.185465   -0.679113   -0.123790
C      -1.202061   -2.036470   -0.113023
C       0.043216   -2.771378    0.015127
O       0.158665   -3.991321    0.036997
C       1.203309   -1.866298    0.118094
N       1.173430   -0.568371    0.103641
H       0.836309    1.845073   -0.569293
H      -0.932899    1.880794   -0.360032
H       0.136354    1.829846    1.065005
H      -2.084079   -0.079318   -0.215806
H      -2.136068   -2.576721   -0.202948
H       2.188114   -2.314779    0.215066
