19

C      -0.368672    1.346076    0.062218
C      -0.024437   -0.111638    0.037427
C       0.942192   -0.837406   -0.906200
C       0.218960   -2.151473   -0.510180
C       0.555138   -2.304934    0.998974
C      -0.258114   -1.026872    1.212596
C      -1.030316   -1.285978   -0.092955
C      -2.457133   -1.225828   -0.354672
O      -3.213784   -0.434173    0.172900
H       0.413174    1.926805    0.565270
H      -0.480963    1.741264   -0.952705
H      -1.314035    1.505447    0.588447
H       0.751042   -0.558030   -1.946046
H       2.017083   -0.773193   -0.697560
H       0.212688   -3.012059   -1.175436
H       0.057443   -3.169320    1.445378
H       1.615029   -2.299359    1.278318
H      -0.706005   -0.658586    2.126761
H      -2.832265   -1.961327   -1.101558
