19

C       0.071796    1.489237   -0.113169
C      -0.023561   -0.006263   -0.054913
C      -0.890496   -0.738308    0.895625
N       0.567917   -0.845920    1.077246
C       1.000630   -1.861272    0.055005
C       0.536049   -0.953228   -1.118655
N      -0.352925   -1.455740   -2.139510
C      -0.044780   -1.456605   -3.467829
O       0.993428   -1.054460   -3.946313
H       1.078084    1.809650   -0.402452
H      -0.633738    1.892114   -0.849160
H      -0.161201    1.933047    0.858854
H      -1.377230   -0.149515    1.667377
H      -1.449103   -1.625679    0.598452
H       2.079840   -2.017715    0.093323
H       0.492210   -2.826765    0.153551
H       1.384863   -0.518674   -1.646967
H      -1.255734   -1.810258   -1.865047
H      -0.868798   -1.876862   -4.078182
