14

O       0.462675    1.089982   -0.665462
C       0.179562   -0.183827   -0.303249
C      -0.269783   -1.190205   -1.118715
N      -0.393477   -2.294992   -0.296866
C      -0.025882   -1.905546    0.951278
N       0.335187   -0.637411    0.973793
O      -0.633363   -1.278211   -2.427241
C       0.234730   -0.767451   -3.352290
N      -0.102926   -0.770563   -4.562905
H       0.735552    1.546137    0.139749
H      -0.727907   -3.197353   -0.591932
H      -0.044054   -2.572513    1.798551
H       1.161090   -0.396582   -2.903220
H       0.638211   -0.366964   -5.131931
