17

C      -0.029648    1.436309    0.026503
N       0.039411   -0.006923    0.000028
C       0.110145   -0.793487   -1.110289
O       0.121408   -0.166694   -2.318666
C       0.157075   -2.118771   -0.747943
C       0.105568   -2.151145    0.685837
N       0.189880   -3.300714    1.503063
C       0.040518   -0.854262    1.116437
O      -0.090530   -0.347840    2.382124
H       0.939651    1.897188   -0.199296
H      -0.758230    1.796147   -0.704362
H      -0.342764    1.741297    1.026035
H       0.126811   -0.841957   -3.003305
H       0.231630   -2.965936   -1.412397
H      -0.388444   -4.052484    1.144508
H      -0.127712   -3.086174    2.442244
H       0.784620   -0.202569    2.762668
