14

N       0.193944    1.288505    0.262411
C       0.024039   -0.076126    0.075645
C      -1.007071   -0.788781   -0.450097
O      -0.620021   -2.120075   -0.473800
C       0.615007   -2.120847    0.040363
C       1.378918   -3.401305    0.162940
O       2.611143   -3.191752    0.805453
N       1.058481   -0.951581    0.385978
H       0.873879    1.488119    0.983418
H      -0.664113    1.798341    0.417274
H      -1.986819   -0.562381   -0.828536
H       0.780482   -4.130691    0.728105
H       1.523428   -3.828025   -0.843322
H       2.724162   -2.234575    0.881728
