17

C      -0.243699    1.703183    0.231428
C       0.000612    0.211416   -0.054712
C       0.768002   -0.505644    1.054587
C       2.255099   -0.158543    1.047040
N       2.930755   -0.530075    2.173356
O       2.803569    0.403019    0.116530
C      -1.301117   -0.486342   -0.385533
O      -1.670994   -1.536191    0.077440
H       0.712635    2.223112    0.317943
H      -0.811853    2.173753   -0.577754
H      -0.804312    1.842290    1.162500
H       0.610115    0.160564   -0.969909
H       0.335944   -0.277704    2.036366
H       0.660833   -1.589564    0.927745
H       2.502875   -1.094974    2.886264
H       3.932739   -0.429357    2.177753
H      -1.925831    0.057548   -1.132064
