14

N       0.103256    1.361616    0.157673
C       0.010627   -0.010461    0.034063
C      -1.134613   -0.791179    0.015321
N      -0.638425   -2.115481   -0.050492
C       0.700390   -2.021492   -0.072476
O       1.456569   -3.124770   -0.140541
N       1.144222   -0.785143   -0.025204
C      -2.490204   -0.458285    0.047228
C      -3.660209   -0.154447    0.063038
H       0.954997    1.737508   -0.233949
H      -0.719484    1.862328   -0.146425
H      -1.185462   -2.958195   -0.078013
H       2.374798   -2.825607   -0.133964
H      -4.686319    0.112916    0.103783
