22

C      -0.067516    1.537306   -0.067084
C      -0.023656    0.033674    0.061304
N       1.276153   -0.617719   -0.181153
C       0.673626   -0.666799    1.175794
C       1.406813    0.032737    2.329652
C       1.516193   -1.038257    3.447343
C       0.630033   -2.174211    2.975085
C       0.363287   -3.365794    3.837792
C       0.180768   -1.949407    1.736769
H       0.846890    1.988741    0.325433
H      -0.162972    1.833490   -1.117424
H      -0.922238    1.951905    0.479003
H      -0.905677   -0.474757   -0.330224
H       1.145951   -1.511257   -0.651340
H       2.379410    0.404719    2.001950
H       0.828157    0.892434    2.682349
H       2.547179   -1.390977    3.588906
H       1.195703   -0.652543    4.423115
H      -0.126253   -3.074576    4.776201
H      -0.274407   -4.098113    3.335161
H       1.299052   -3.865477    4.120750
H      -0.456435   -2.622102    1.169870
