17

C      -0.043403    1.533610    0.002675
C       0.041262    0.035810    0.027379
C      -0.841137   -0.843102    0.869324
C       0.650278   -0.934181    1.047114
C       1.249608   -1.796392   -0.065691
C       0.647570   -0.800281   -1.125665
C      -0.271155   -1.332483   -2.123728
N      -1.014263   -1.764243   -2.897810
H       0.911267    1.986875   -0.288256
H      -0.805660    1.874507   -0.707915
H      -0.312963    1.924671    0.988749
H      -1.372254   -0.320237    1.658349
H      -1.398969   -1.666838    0.429429
H       1.132773   -0.707911    1.990130
H       2.340255   -1.794168   -0.096497
H       0.892769   -2.828211   -0.123288
H       1.443891   -0.252105   -1.636124
