23

C       0.050210    1.606827    0.038104
C       0.056356    0.089929    0.025725
C      -1.173469   -0.579394   -0.547230
C      -2.576140   -0.055856   -0.356122
C      -1.944519   -0.041997   -1.728265
C       1.307765   -0.716042   -0.252821
C       2.574715   -0.071425    0.323128
C       1.920857   -0.085560    1.743111
C       0.664517   -0.730050    1.144244
H       0.967138    2.018309    0.463522
H      -0.042673    2.013175   -0.974831
H      -0.781894    1.997078    0.634003
H      -1.094778   -1.663962   -0.522016
H      -3.365278   -0.772103   -0.154574
H      -2.711077    0.897397    0.142091
H      -1.661169    0.920435   -2.138823
H      -2.299058   -0.748716   -2.470706
H       1.303135   -1.490457   -1.012112
H       3.440129   -0.735654    0.267839
H       2.864718    0.900242   -0.089670
H       2.446606   -0.756940    2.425773
H       1.788225    0.877021    2.247580
H       0.090507   -1.516877    1.621389
