17

C       0.003548    1.531095   -0.027745
C      -0.008519    0.003979    0.004121
C      -1.418478   -0.577330   -0.081918
O       0.783023   -0.501625   -1.098990
C       1.837848   -1.225145   -0.657841
N       2.656616   -1.757504   -1.455578
N       1.790667   -1.229736    0.742916
C       0.723466   -0.521490    1.245219
O       0.429650   -0.354133    2.402272
H       1.028255    1.911930   -0.018235
H      -0.492735    1.890612   -0.932791
H      -0.521704    1.919137    0.848493
H      -1.915660   -0.220888   -0.987689
H      -1.387517   -1.669785   -0.109043
H      -1.996367   -0.265638    0.791665
H       3.387174   -2.263704   -0.962061
H       2.466290   -1.701344    1.322671
