17

C       0.132891    1.296123    0.242809
O      -0.286394   -0.001712   -0.175120
C       0.439748   -0.534302   -1.221776
C       1.788649   -1.156944   -0.935298
C       0.607330   -2.058820   -1.209220
C       0.011510   -2.830216   -0.081749
O      -0.462548   -3.929757   -0.213697
C       0.246825    0.069194   -2.574236
O      -0.443567    1.028777   -2.799704
H       1.192350    1.295427    0.533598
H      -0.031306    2.036204   -0.544862
H      -0.475938    1.546142    1.113405
H       2.574117   -1.106253   -1.680924
H       2.121846   -1.081001    0.094371
H       0.562723   -2.568943   -2.165570
H       0.048092   -2.319559    0.901583
H       0.813718   -0.451415   -3.380682
