11

O      -0.036946   -0.090194   -0.001625
C      -0.034889    1.114602    0.009189
C       1.186736    1.938496    0.002494
C       1.344500    3.303623    0.012971
N       2.713485    3.532882   -0.000538
N       3.336087    2.442905   -0.017896
O       2.394158    1.377906   -0.016692
C       0.382337    4.330069    0.033485
C      -0.441775    5.206224    0.051142
H      -0.962248    1.719441    0.025597
H      -1.167394    5.982814    0.067020
