20

C       0.129449    1.473511   -0.147142
C      -0.007420   -0.058070   -0.195592
C       0.259674   -0.589397   -1.607574
N       0.937614   -0.683396    0.719801
C       0.599350   -0.883970    1.933149
N      -0.579209   -0.621816    2.575067
N       1.576783   -1.525792    2.733986
C       1.573444   -1.765988    4.073761
O       0.681195   -1.492746    4.855768
H       1.152375    1.765412   -0.404953
H      -0.556260    1.951502   -0.854568
H      -0.084957    1.865797    0.852690
H      -1.048362   -0.321511    0.063336
H       1.282499   -0.347517   -1.913825
H       0.148843   -1.677007   -1.636234
H      -0.435013   -0.150413   -2.331251
H      -1.192140    0.056825    2.159826
H      -0.580991   -0.720271    3.583210
H       2.395387   -1.777058    2.198827
H       2.507677   -2.260429    4.396080
