9

O       0.023390    0.005858    0.002894
C      -0.048667    1.191598    0.010282
C      -1.232940    2.151646    0.031888
N      -0.650244    3.491958    0.031022
C       0.601916    3.303792    0.012646
O       1.082215    2.017231   -0.000951
H      -1.873991    1.993866   -0.841618
H      -1.849524    1.984370    0.921100
H       1.367756    4.069761    0.006148
