21

C      -0.947953    1.605569   -0.732345
O      -0.771859    0.211857   -0.808964
C      -0.516676   -0.377418    0.444776
C      -0.347073   -1.872446    0.224506
O      -0.091931   -2.460379    1.480810
C       0.084628   -3.863078    1.395076
C       0.344238   -4.420347    2.714958
C       0.560457   -4.903896    3.795204
C       0.820924   -5.479494    5.106103
H      -1.139021    1.968067   -1.745340
H      -1.802059    1.875063   -0.090863
H      -0.051762    2.109725   -0.337011
H       0.396820    0.035755    0.902458
H      -1.346655   -0.198117    1.147375
H      -1.260525   -2.286225   -0.232888
H       0.483293   -2.052343   -0.477601
H      -0.813876   -4.332928    0.958170
H       0.921791   -4.099614    0.715252
H       0.084229   -6.250255    5.357883
H       1.814323   -5.939062    5.151756
H       0.775365   -4.711227    5.885757
