18

O      -0.122205   -0.032952   -0.020946
C       0.022835    1.160988   -0.014615
C       1.344447    1.871751   -0.208202
C       1.285653    2.891315   -1.344286
O       2.472940    3.656776   -1.307314
C       2.550442    4.614044   -2.336385
C       3.883792    5.349615   -2.155616
C       4.081377    6.379933   -3.169863
N       4.219652    7.191233   -3.980575
H      -0.845647    1.842119    0.148430
H       1.570749    2.417608    0.718354
H       2.131524    1.133705   -0.377391
H       1.187332    2.380570   -2.315455
H       0.405133    3.546193   -1.229363
H       2.512381    4.136661   -3.327696
H       1.713504    5.327505   -2.280215
H       3.913913    5.807098   -1.161308
H       4.705804    4.627970   -2.204075
