16

C      -0.037174    1.474939    0.153375
N      -0.038399    0.022806    0.228009
C      -1.086909   -0.616367   -0.016270
O      -2.318004   -0.108718   -0.337563
C      -3.202833   -1.206189   -0.555196
O      -2.647340   -2.311845    0.106878
C      -1.231184   -2.139592    0.015937
C      -0.663473   -2.775011   -1.174095
C      -0.216129   -3.299521   -2.157654
H       0.675429    1.789248   -0.617402
H      -1.014746    1.916829   -0.069233
H       0.326545    1.877558    1.104781
H      -4.176237   -0.978761   -0.114549
H      -3.291724   -1.380021   -1.637947
H      -0.783378   -2.550469    0.923458
H       0.190169   -3.764073   -3.022346
