18

C      -0.004698    1.474819   -0.092295
C       0.005986   -0.025872   -0.028379
N       0.640385   -0.851986   -1.113464
C       0.104077   -1.860364   -0.145809
C       0.534393   -1.002784    1.083868
C      -0.846390   -1.174642    1.748405
O      -1.342904   -0.211717    2.651213
C      -1.176337   -1.067179    0.247298
O      -2.385367   -1.168355   -0.405107
H       1.013407    1.862546   -0.198422
H      -0.588040    1.815913   -0.955187
H      -0.451701    1.925537    0.800405
H       0.049364   -0.832572   -1.950094
H       0.217926   -2.937509   -0.264980
H       1.526916   -0.989143    1.527425
H      -1.038826   -2.152092    2.201786
H      -0.935581    0.636816    2.453340
H      -3.026083   -0.624779    0.067899
