19

C      -0.350345   -1.253474   -0.194284
C      -0.196434   -0.065766   -0.095572
C      -0.008747    1.380088   -0.001431
C      -0.655316    1.951763    1.280555
O      -0.225835    1.337811    2.469524
C       1.017416    1.777032    2.981174
C       2.251886    1.349012    2.221746
C       2.437528    1.339970    0.902392
C       1.475708    1.781917   -0.173170
H      -0.487809   -2.303499   -0.269836
H      -0.553221    1.845322   -0.836784
H      -0.475556    3.040150    1.312556
H      -1.736359    1.788197    1.232274
H       1.010654    2.879097    3.079371
H       1.063614    1.371866    3.996629
H       3.083400    1.042136    2.853121
H       3.410311    1.016202    0.538873
H       1.819243    1.396866   -1.137996
H       1.514034    2.878726   -0.257327
