22

C      -2.507776    1.500357    0.296395
C      -1.483653    0.527869    0.908220
C      -1.046047   -0.572680   -0.040303
N      -0.063051   -0.258095   -0.796514
O       0.320628   -1.288498   -1.673900
C      -1.721036   -1.931455   -0.020151
C      -1.276544   -2.740249    1.214037
C      -3.256902   -1.834179   -0.096074
O      -3.872806   -3.111493   -0.151155
H      -2.755063    2.292203    1.010436
H      -2.094952    1.966336   -0.602723
H      -3.440317    1.000592    0.019068
H      -0.594786    1.094028    1.200285
H      -1.894194    0.081950    1.820728
H       1.053248   -0.880305   -2.146384
H      -1.388914   -2.467944   -0.913943
H      -1.504417   -2.209545    2.144897
H      -1.808121   -3.694545    1.235928
H      -0.200841   -2.932841    1.187250
H      -3.661256   -1.356727    0.802755
H      -3.549857   -1.217478   -0.958912
H      -3.598031   -3.533897   -0.971734
