22

C      -0.181117    1.406637   -0.282756
C       0.018725   -0.082331   -0.144140
C       0.784473   -0.826433   -1.166589
N       1.395662   -0.495453    0.189090
C       1.310679   -1.963367    0.518847
C       0.793574   -2.328691   -0.891231
C      -0.446989   -3.197356   -1.228976
C       0.305995   -3.730531   -2.478198
C       1.629851   -3.216242   -1.850673
H       0.675550    1.863809   -0.785682
H      -1.083286    1.627114   -0.863381
H      -0.283427    1.877489    0.700285
H      -0.790056   -0.609921    0.364392
H       1.140317   -0.352473   -2.078680
H       2.306889   -2.361250    0.731014
H       0.649387   -2.184141    1.365666
H      -0.601519   -3.980874   -0.479938
H      -1.394001   -2.673281   -1.384617
H       0.233450   -4.798536   -2.694922
H       0.039403   -3.176262   -3.382277
H       2.345633   -2.708905   -2.503612
H       2.157797   -4.005186   -1.304913
