17

N       0.014627   -1.161620    0.057926
C      -0.013721   -0.005645    0.024325
C      -0.075195    1.430323    0.016939
C      -1.129399    2.255856    0.777874
C      -0.656355    3.409936   -0.138514
C       0.775188    3.643354    0.383746
C       1.294001    2.258225   -0.063756
N       1.130575    2.267483   -1.544343
C      -0.302679    2.303328   -1.258443
H      -2.133418    1.898051    0.536959
H      -1.023824    2.377340    1.858880
H      -1.290975    4.267266   -0.349978
H       1.321311    4.447688   -0.118235
H       0.805740    3.817256    1.462626
H       2.225432    1.865324    0.340130
H       1.508428    3.099715   -1.997891
H      -1.025084    2.074818   -2.040086
