20

C      -0.239421    1.350713    0.080429
O       0.154678   -0.002980   -0.062189
C       0.761207   -0.554879    1.082516
C      -0.227670   -0.680539    2.181759
N      -1.008074   -0.759888    3.030681
C       1.372906   -1.916456    0.696592
C       2.399933   -1.738740   -0.426720
C       1.988759   -2.609278    1.916012
O       2.456279   -3.879202    1.490946
H       0.619168    1.992925    0.326481
H      -0.652807    1.658629   -0.881607
H      -1.006240    1.471226    0.857194
H       1.562904    0.110965    1.447805
H       0.551694   -2.547930    0.337660
H       3.219979   -1.084871   -0.104371
H       2.826302   -2.708289   -0.688822
H       1.938541   -1.296809   -1.310972
H       2.814481   -1.993240    2.312608
H       1.238096   -2.711032    2.712378
H       2.797923   -4.346151    2.258651
