18

O      -0.091708   -0.012363    0.104749
C      -0.060216    1.180397    0.042538
C      -1.076226    2.344876    0.065462
C       0.007404    3.025003    1.011553
C       0.994967    2.307986    0.046344
C       2.434481    2.092113   -0.437694
C       1.818053    2.288383   -1.867351
N       0.703941    3.022666   -1.212706
C      -0.771441    2.902800   -1.357217
H      -2.112521    2.217098    0.369395
H       0.072204    4.113385    0.985170
H      -0.048056    2.638447    2.030620
H       3.114977    2.902199   -0.171753
H       2.878934    1.124015   -0.205699
H       2.382819    2.880299   -2.591922
H       1.528201    1.328704   -2.321132
H      -1.092584    2.191955   -2.131686
H      -1.227315    3.875228   -1.569077
