18

C      -0.094956    1.586335   -0.128653
C       0.000505    0.070328   -0.044060
C       1.147257   -0.585943   -0.856021
O       1.484988   -0.619133   -2.007443
N       1.675096   -1.130795    0.293803
C       0.682104   -0.582677    1.203536
C       1.086109    0.213610    2.463012
O       0.223333   -0.591602    3.289760
C      -0.088739   -1.477293    2.197305
H       0.865349    2.062210    0.094025
H      -0.384689    1.882991   -1.140714
H      -0.842181    1.979815    0.567836
H      -0.964461   -0.395098   -0.268027
H       2.481155   -1.719038    0.452099
H       2.144794    0.108765    2.737528
H       0.813169    1.274622    2.489737
H      -1.169024   -1.574223    2.035215
H       0.345286   -2.477463    2.333948
