16

C      -0.209562    1.318189    0.034445
O       0.373105    0.044352   -0.142679
C       0.846379   -0.510114    1.036394
C      -0.111870   -1.377418    1.923088
O      -0.127807   -2.402025    0.857422
C       1.286339   -1.984312    0.945421
C       1.124302   -2.100118    2.498908
O       1.934606   -1.387987    3.389765
H       0.496387    2.027114    0.494253
H      -0.487455    1.685919   -0.955664
H      -1.111804    1.273019    0.661879
H       1.511912    0.168782    1.583533
H      -1.057513   -1.131988    2.405817
H       1.996071   -2.455494    0.265162
H       0.903294   -3.124257    2.814052
H       2.699207   -1.930463    3.606411
