16

O      -0.566447    0.779186    0.884216
C       0.059314    1.005758   -0.117349
C       1.338117    1.815117   -0.173967
C       1.249013    2.950905   -1.205538
C       2.566119    3.715391   -1.335850
C       2.504029    4.836751   -2.347501
O       1.540082    5.124181   -3.009543
C       3.762603    5.604781   -2.490911
N       4.753443    6.192350   -2.590601
H      -0.278884    0.616752   -1.106789
H       1.555300    2.191062    0.830261
H       2.147252    1.126183   -0.459457
H       0.967207    2.549323   -2.185273
H       0.453482    3.649154   -0.925277
H       2.879712    4.150966   -0.376537
H       3.393631    3.052680   -1.627950
