17

O      -0.106394    1.421041    0.025497
C      -0.068273    0.046686    0.025872
C      -0.215936   -0.724033   -1.255627
C      -1.138386   -1.033092   -0.098837
O      -0.460228   -1.876447    0.840676
C       0.534993   -0.848631    1.103451
C      -2.613309   -1.030040   -0.114750
C      -3.383531   -2.060835    0.596098
O      -3.267164   -0.742210    1.130572
H      -0.557780    1.714314    0.825960
H      -0.664824   -0.136006   -2.050748
H       0.518948   -1.460468   -1.570659
H       1.559144   -1.211205    0.961489
H       0.415289   -0.447650    2.117735
H      -3.062136   -0.543815   -0.980160
H      -4.372084   -2.337449    0.231869
H      -2.842839   -2.830095    1.142267
