20

C       0.101805    1.390475   -0.042056
O      -0.070662   -0.007838   -0.107554
C       0.478438   -0.626072   -1.261142
C       2.007472   -0.704641   -1.202665
C      -0.159038   -2.002080   -1.314737
C      -1.533661   -2.163918   -1.894562
N      -0.373944   -2.677119   -2.583525
C       0.036011   -2.284937   -3.843175
O      -0.702716   -2.051393   -4.769047
H       1.151725    1.684090    0.098324
H      -0.278688    1.887809   -0.947761
H      -0.472146    1.740922    0.819058
H       0.172783   -0.065487   -2.161962
H       2.457409    0.290879   -1.165683
H       2.322207   -1.258432   -0.312626
H       2.404125   -1.214029   -2.086006
H       0.131156   -2.658384   -0.495669
H      -2.210533   -2.904177   -1.478505
H      -2.009734   -1.285406   -2.322620
H       1.139096   -2.287757   -3.935951
