14

C      -0.021254    1.452708   -0.006820
C       0.008325   -0.001190    0.010263
C       0.027325   -1.204658    0.019101
C       0.068408   -2.646596    0.025391
C      -0.593461   -3.398496    1.125478
O      -1.203780   -3.318793   -0.149568
C       1.184866   -3.254388   -0.662217
C       2.121128   -3.751153   -1.227389
H       0.749326    1.854082   -0.673622
H      -0.991163    1.820411   -0.358858
H       0.150616    1.867132    0.992468
H      -0.193898   -4.372614    1.402579
H      -1.073716   -2.829896    1.920026
H       2.945414   -4.190103   -1.733267
