16

O      -0.072653    1.425380   -0.024974
C      -0.015014    0.046930   -0.064178
C       0.685794   -0.774913   -1.153217
C      -0.509307   -1.786930   -1.102182
C      -1.178955   -0.917220   -0.032385
C      -0.261105   -0.786744    1.186984
C       0.607530   -1.829286    1.648994
C       1.349797   -2.699509    2.025009
H       0.726425    1.752167    0.404288
H       0.722067   -0.229466   -2.098376
H       1.679641   -1.162063   -0.912710
H      -1.071313   -1.817345   -2.037260
H      -0.263332   -2.805936   -0.794188
H      -2.239019   -0.720579    0.071332
H      -0.717897   -0.184699    1.968806
H       1.998284   -3.467915    2.365811
