23

C       1.902264    1.528992   -0.625757
O       1.680638    0.148655   -0.483588
C       1.193306   -0.450668   -1.670301
C       0.998422   -1.930225   -1.381398
C      -0.136532   -2.789774   -1.892467
C      -0.934612   -2.327692   -3.104104
C       0.116118   -1.949740   -4.177515
C       1.380508   -2.774785   -3.831554
C       1.286700   -3.064576   -2.339671
H       2.649489    1.747377   -1.406188
H       0.976647    2.069946   -0.882098
H       2.274238    1.902495    0.331664
H       0.249148    0.036419   -1.968980
H       1.913093   -0.284577   -2.490203
H       1.280126   -2.142818   -0.354384
H      -0.635592   -3.436570   -1.178320
H      -1.554243   -3.162340   -3.452735
H      -1.617560   -1.498649   -2.886319
H      -0.241042   -2.149724   -5.191260
H       0.336230   -0.879585   -4.134782
H       1.375113   -3.728073   -4.373160
H       2.302244   -2.255646   -4.118008
H       1.841456   -3.914822   -1.956604
