13

C       0.080449    1.452154    0.090422
N       0.332641    0.026471    0.113110
C       0.554371   -0.628757   -0.929318
O       0.567833    0.012594   -2.202477
C       0.798111   -0.625167   -3.361014
O       0.807657   -0.085407   -4.415085
O       1.030236   -1.981191   -3.261860
C       1.010297   -2.563178   -2.029891
N       0.797178   -1.993454   -0.921463
H       0.825633    1.943633    0.725305
H       0.098533    1.907974   -0.903776
H      -0.895099    1.636472    0.553260
H       1.207950   -3.627171   -2.106857
