19

C      -0.445954    1.201427    0.612937
O       0.027600    0.098398   -0.140547
C      -0.944571   -0.867194   -0.352480
C      -0.455557   -2.279436   -0.497899
C      -1.246626   -1.874619    0.729855
O      -0.591444   -1.692960    1.947459
C      -0.522305   -2.856542    2.756783
C       0.409895   -3.881787    2.281591
C       1.180881   -4.730687    1.922223
H       0.383553    1.907534    0.696494
H      -1.287025    1.702132    0.108772
H      -0.764549    0.892317    1.615510
H      -1.787210   -0.538398   -0.964863
H      -0.908624   -2.932652   -1.234998
H       0.607675   -2.413185   -0.340823
H      -2.272810   -2.233940    0.825412
H      -0.205293   -2.505341    3.744472
H      -1.523746   -3.300549    2.873576
H       1.860739   -5.479709    1.598546
