20

C       0.369480    1.444021   -0.555901
C      -0.074684    0.005492   -0.283062
C       0.512667   -0.532793    1.037231
C      -1.581923   -0.117014   -0.272659
N      -2.378117    0.852637   -0.229540
O      -1.904606   -1.494681   -0.310015
C      -3.178532   -1.978154   -0.278976
C      -3.149628   -3.485011   -0.339711
O      -4.175538   -1.307214   -0.214035
H       1.461973    1.496256   -0.593831
H      -0.031062    1.810794   -1.503927
H       0.014837    2.115334    0.230248
H       0.282480   -0.644423   -1.093056
H       0.202334   -1.564116    1.221907
H       1.605679   -0.505362    1.001544
H       0.185863    0.082569    1.881991
H      -3.349195    0.546695   -0.214107
H      -2.588620   -3.882328    0.511018
H      -4.169670   -3.866678   -0.326031
H      -2.636783   -3.812470   -1.248437
