20

C      -0.322144    1.414358    0.073487
C       0.089741   -0.055180   -0.099112
C       0.960704   -0.256791   -1.347804
C       0.808909   -0.568845    1.141727
O       2.030638    0.063853    1.434170
C       0.005245   -1.080337    2.325942
C       0.814537   -2.028229    1.458009
O       0.165663   -2.885429    0.564878
H       0.556378    2.064489    0.164496
H      -0.890451    1.763956   -0.793947
H      -0.944978    1.556398    0.963471
H      -0.816691   -0.658900   -0.212731
H       1.922347    0.252126   -1.231022
H       1.155544   -1.319844   -1.513045
H       0.466126    0.144271   -2.238511
H       1.831261    0.940006    1.781479
H       0.375431   -0.871883    3.323990
H      -1.074832   -1.112065    2.223101
H       1.740467   -2.410065    1.886290
H      -0.268921   -3.575116    1.077015
