18

C      -0.190977   -1.196733    0.020595
C      -0.092785    0.001325    0.054599
C       0.027428    1.432363    0.048150
N       0.646365    2.084865    1.232976
C       1.350550    2.126420   -0.045804
C       2.694745    1.410010   -0.157160
C       3.420509    2.239617   -1.227233
O       2.892683    3.557992   -1.099993
C       1.504225    3.412536   -0.869946
H      -0.281463   -2.254695    0.007063
H      -0.810663    1.950697   -0.416567
H       0.170955    2.967453    1.412321
H       3.211378    1.467726    0.804501
H       2.586442    0.356769   -0.425792
H       4.501780    2.299186   -1.086349
H       3.221443    1.842773   -2.236116
H       0.955990    3.328398   -1.823531
H       1.146938    4.305006   -0.344898
