20

O       0.004648    1.307309   -0.625014
C      -0.011175    0.050229   -0.018082
C      -0.061784   -1.191019   -0.872942
C      -1.276475   -0.768248   -0.060199
C      -1.474582   -1.415197    1.301247
C      -0.095320   -1.314645    1.961072
C       0.181816   -1.845375    3.312290
N       0.742523   -2.520533    2.123768
C       0.595888   -0.086823    1.373141
H       0.883924    1.447422   -0.992829
H      -0.132930   -1.024494   -1.942232
H       0.507625   -2.067111   -0.579183
H      -2.136936   -0.396814   -0.604158
H      -2.217277   -0.845770    1.874481
H      -1.827401   -2.452893    1.253691
H       0.915593   -1.360073    3.950828
H      -0.631603   -2.327198    3.850181
H       0.191641   -3.351894    1.919877
H       1.683362   -0.209452    1.378797
H       0.345182    0.815580    1.944381
