12

O      -0.700684    0.746434    0.764494
C       0.082269    0.929441   -0.116112
C       1.303753    1.893411    0.002646
C       2.614787    1.031365   -0.098423
O       2.593554   -0.150413   -0.268453
C       1.310005    2.813462   -1.129695
C       1.329408    3.506924   -2.110103
C       1.323250    2.596819    1.287929
N       1.394442    3.135501    2.306532
H       0.022753    0.446634   -1.108522
H       3.541213    1.630293   -0.016982
H       1.335623    4.143512   -2.961723
