23

C      -0.857039    1.427830    0.732378
C      -0.313353    0.050527    0.322815
C       0.307499    0.112337   -1.074859
O      -0.711977    0.458118   -2.001312
C       0.698966   -0.464598    1.344565
C       0.239796   -0.674424    2.802871
O       0.807465   -1.996700    2.843478
C       1.107239   -1.970276    1.425218
C       0.302154   -3.017689    0.674064
H      -0.041559    2.154748    0.832468
H      -1.551396    1.801195   -0.023048
H      -1.382807    1.381614    1.690979
H      -1.158886   -0.647020    0.266944
H       1.118920    0.860086   -1.077892
H       0.757701   -0.858507   -1.332780
H      -0.312140    0.551009   -2.870538
H       1.593514    0.167329    1.307823
H       0.675321   -0.013025    3.560587
H      -0.851094   -0.695100    2.939828
H       2.178913   -2.144640    1.260236
H      -0.774151   -2.864811    0.793251
H       0.539567   -3.015397   -0.394834
H       0.546535   -4.007646    1.072096
