21

C       0.040551    1.522569    0.193817
C       1.572839    1.353445    0.017481
O       2.214099    1.004570    1.236080
C       1.396123    0.171088    2.060123
C       0.535880   -0.798338    1.229466
C       1.395497   -1.897741    0.569757
C       2.129932   -1.174397   -0.590299
C       1.271259    0.072200   -0.840977
C      -0.032868   -0.014695    0.012022
H      -0.330408    1.985118    1.111791
H      -0.392868    2.041756   -0.664952
H       2.162667    2.160902   -0.421175
H       2.077288   -0.365995    2.727797
H       0.745041    0.796142    2.688145
H      -0.244512   -1.214385    1.875287
H       2.075413   -2.379325    1.279521
H       0.741031   -2.680573    0.169311
H       3.145224   -0.891186   -0.297784
H       2.205928   -1.805424   -1.480067
H       1.114638    0.327634   -1.891292
H      -0.936657   -0.466758   -0.403304
