17

C      -0.097433    1.488799   -0.004187
C       0.047259   -0.003760    0.063950
O      -1.258914   -0.702224    0.061631
C      -0.935948   -1.411966    1.203155
O      -1.627884   -2.180543    1.789349
C       0.470074   -0.812799    1.302153
C       1.578772   -1.495327    0.453179
C       1.028635   -2.182026   -0.760702
C       1.149930   -0.685558   -0.780214
H       0.877441    1.968931    0.125249
H      -0.496747    1.789213   -0.978816
H      -0.775199    1.851536    0.773303
H       0.772254   -0.355654    2.241991
H       2.573878   -1.690246    0.829547
H       1.771134   -2.697612   -1.361074
H       0.055020   -2.661244   -0.751877
H       1.758167   -0.161525   -1.507226
