17

C      -0.188192    1.452885   -0.135919
C      -0.051136   -0.070317   -0.072029
O      -1.305349   -0.721831   -0.184761
C       0.850280   -0.613078   -1.168539
C       0.720554   -2.029806   -1.654999
N       0.356704   -0.914872   -2.497452
C      -0.902962   -0.705328   -3.031971
O      -1.592394   -1.564975   -3.520712
H       0.790580    1.937511   -0.064687
H      -0.661930    1.762033   -1.072115
H      -0.798656    1.819070    0.697559
H       0.430546   -0.337708    0.884764
H      -1.939348   -0.272015    0.381101
H       1.845856   -0.170699   -1.152255
H       1.609680   -2.583104   -1.944933
H      -0.099789   -2.618828   -1.256678
H      -1.166202    0.369172   -3.054992
