14

O       0.194454    1.419731   -0.210790
C       0.005923    0.029084   -0.043434
C       0.599920   -0.551453    1.258160
C      -0.285457   -1.320106    1.924413
C      -1.515911   -1.272895    1.146931
C      -1.408686   -0.493494    0.046131
N      -2.599250   -0.510466   -0.653499
C      -3.352992   -1.284925    0.067196
O      -2.759852   -1.803821    1.195589
H      -0.326160    1.866457    0.465966
H       0.524428   -0.436993   -0.892772
H       1.617066   -0.334333    1.555995
H      -0.125945   -1.856231    2.849499
H      -4.379671   -1.568634   -0.099065
