16

O       0.057275    1.405961    0.168388
C       0.000646    0.015129    0.031917
C      -1.437932   -0.499257    0.027792
C      -1.434933   -2.022632   -0.135628
C      -0.631413   -2.504862   -1.331773
O      -0.822847   -3.549136   -1.905127
N       0.397089   -1.649562   -1.751163
C       0.717697   -0.403126   -1.250320
O       1.528380    0.322201   -1.787731
H       0.780021    1.696528   -0.409550
H       0.543460   -0.482867    0.858990
H      -1.931585   -0.211619    0.959514
H      -1.985252   -0.019237   -0.791129
H      -0.993932   -2.497061    0.751827
H      -2.440362   -2.434662   -0.240409
H       0.905102   -1.949544   -2.575813
