16

C      -0.114103    1.363826    0.154723
O       0.561637    0.138911   -0.168991
C       0.947437   -0.598327    0.869234
C       0.852714   -1.911641    1.108053
N       1.545430   -2.140915    2.312089
C       1.723957   -3.407045    2.985470
C       2.028620   -0.955723    2.801735
O       2.648882   -0.727570    3.806920
O       1.654627    0.018539    1.879534
H       0.531988    2.022404    0.740693
H      -0.355687    1.831755   -0.799715
H      -1.034632    1.157807    0.712709
H       0.384210   -2.696268    0.542459
H       2.278016   -4.113156    2.357632
H       2.293315   -3.212808    3.895363
H       0.758973   -3.851517    3.252622
