18

O       0.237729    1.271335    0.339549
C       0.032496   -0.078460    0.020632
C      -1.468496   -0.419882    0.031376
C      -1.748021   -1.891823    0.337874
C      -1.061016   -2.903146   -0.534120
C      -0.111894   -2.748365   -1.460877
N       0.556135   -1.593172   -1.895442
C       0.673837   -0.350065   -1.340245
O       1.287984    0.536682   -1.915273
H       0.793273    1.617316   -0.379762
H       0.540721   -0.726017    0.757700
H      -1.925270    0.204030    0.804461
H      -1.923099   -0.124450   -0.921239
H      -1.480446   -2.097455    1.385390
H      -2.830394   -2.068830    0.284062
H      -1.378428   -3.931327   -0.382130
H       0.238484   -3.624720   -1.996357
H       1.063961   -1.671029   -2.765439
