14

O       0.037086   -0.029360   -0.056360
C      -0.013128    1.173902   -0.005783
C      -1.193250    2.062050    0.041440
C      -0.776192    3.336767    0.055317
N       0.631844    3.512620   -0.069895
C       1.336156    3.073821    1.146899
C       1.186678    2.136692   -0.028067
C       2.320506    1.809248   -0.837182
C       3.265798    1.492024   -1.506698
H      -2.211124    1.704333    0.097255
H      -1.371730    4.234450    0.171673
H       2.313337    3.516811    1.310107
H       0.734276    2.884575    2.031368
H       4.098317    1.215000   -2.105088
