13

O       0.500822    1.112235   -0.388874
C       0.080331   -0.171127   -0.062015
C       0.140306   -0.686171    1.430119
O       1.015138   -0.911852    2.205528
C      -1.374934   -0.914421    1.432615
O      -1.931032    0.359725    1.076936
C      -1.434004   -0.447656    0.004266
C      -2.383629   -0.927572   -1.026159
O      -2.031543   -1.340267   -2.101228
H       0.024165    1.729979    0.179258
H       0.602779   -0.876856   -0.715380
H      -2.010625   -1.614077    1.962759
H      -3.448313   -0.879543   -0.713787
