17

C      -0.022910    1.454773   -0.000476
N      -0.008298    0.001549    0.077038
C      -1.206983   -0.688423    0.045534
N      -2.352364   -0.033344    0.118630
C      -3.480068   -0.769853    0.087583
C      -3.451071   -2.141929   -0.037264
N      -2.287483   -2.822673   -0.083495
C      -1.178165   -2.115420   -0.029191
N       0.053622   -2.766942   -0.097792
H       1.006586    1.816338    0.052727
H      -0.492500    1.830108   -0.919625
H      -0.584886    1.859647    0.843299
H       0.714876   -0.444896   -0.470774
H      -4.418399   -0.227261    0.153247
H      -4.363233   -2.728064   -0.087806
H      -0.058575   -3.770607   -0.023567
H       0.732786   -2.416997    0.567926
