16

C      -0.045029    1.544319   -0.022358
C       1.497161    1.357609   -0.010968
C       1.158038    0.133299    0.895091
N      -0.099038    0.005205   -0.000207
C       0.599060   -0.242711   -1.249911
N       0.630171   -1.143302   -2.188134
C       1.769814   -0.800891   -2.911640
C       2.421932    0.282556   -2.364648
N       1.622480    0.659960   -1.308823
H      -0.459770    1.945285    0.903693
H      -0.499503    2.003811   -0.901379
H       2.238928    2.128375    0.190362
H       1.825758   -0.729207    0.864029
H       0.871957    0.381056    1.919389
H       2.044256   -1.349080   -3.799866
H       3.303678    0.822528   -2.665771
