17

N      -0.146239    1.450209    0.068373
C      -0.037573    0.037852   -0.067180
C       0.710928   -0.784299   -1.133717
C      -0.496637   -1.792835   -1.147602
O      -0.282612   -3.165416   -1.001828
C      -1.173794   -0.981904   -0.028667
C      -0.258740   -0.810316    1.172943
C       0.666904   -1.825091    1.599470
N       1.420921   -2.650969    1.901904
H       0.735837    1.855034    0.369783
H      -0.383557    1.880003   -0.820989
H       0.826381   -0.252992   -2.081388
H       1.679157   -1.197745   -0.836544
H      -1.067231   -1.680022   -2.073095
H       0.268488   -3.321646   -0.225399
H      -2.238211   -0.822593    0.096896
H      -0.716444   -0.253473    1.983849
