19

C      -0.032333    1.564281    0.025693
C       1.462708    1.872171    0.036869
C       2.010020    0.974533    1.168704
C       2.602478    0.028563    0.155931
C       1.280452   -0.301833    0.811989
C       0.021128    0.003413   -0.061657
C       0.275882   -0.317109   -1.515369
C       1.381116    0.235740   -2.027039
C       2.240487    0.951499   -1.028695
H      -0.485054    1.889175    0.970072
H      -0.585729    2.005684   -0.807489
H       1.744491    2.924012    0.017633
H       2.332694    1.262818    2.160266
H       3.468212   -0.621001    0.216737
H       1.260020   -1.128390    1.511176
H      -0.875989   -0.480034    0.327444
H      -0.431734   -0.901293   -2.094275
H       1.675864    0.142951   -3.067212
H       3.100201    1.466821   -1.457408
