19

C       0.012594    1.427949   -0.227109
C       0.026570   -0.068964    0.111765
C       0.708605   -0.348718    1.452490
N      -1.328576   -0.627029    0.070183
C      -2.223696   -0.744536    1.082662
N      -3.391521   -1.207415    0.668417
C      -3.240926   -1.385395   -0.673812
O      -4.247845   -1.861544   -1.440453
C      -1.981151   -1.034722   -1.087044
H       1.034357    1.816404   -0.280406
H      -0.474726    1.604802   -1.189423
H      -0.530708    1.990442    0.538871
H       0.584295   -0.597664   -0.669672
H       0.682781   -1.413929    1.696218
H       1.753378   -0.030251    1.402531
H       0.236685    0.206600    2.269035
H      -1.986297   -0.490855    2.103027
H      -4.987903   -2.013117   -0.840102
H      -1.496951   -1.047327   -2.047508
