18

C       0.008170    1.538074   -0.132434
C       0.001199    0.025967    0.005683
N       0.250942   -0.545839   -1.316104
C       0.274739   -1.808729   -1.363353
O       0.090535   -2.628823   -0.306630
C      -0.138835   -1.912190    0.895760
C       0.754316   -0.676195    1.201841
C      -0.388980   -0.228137    2.147150
C      -1.111111   -0.698775    0.859296
H       0.973115    1.861086   -0.535192
H      -0.757709    1.839953   -0.853533
H      -0.170690    2.067977    0.804343
H       0.450303   -2.363273   -2.281623
H      -0.274119   -2.654692    1.681788
H       1.828283   -0.674670    1.388474
H      -0.544720   -0.846228    3.036058
H      -0.447426    0.829317    2.395886
H      -2.181058   -0.723209    0.652283
