17

C      -0.097291    1.531171   -0.036417
C       0.021389    0.039731   -0.003564
C       0.876922   -0.836193   -0.985087
C      -0.171401   -1.907646   -0.946553
C       1.154016   -2.129271   -0.229860
C       0.961094   -1.875649    1.237752
O       1.531763   -2.380335    2.170884
C      -0.112791   -0.828583    1.245147
C      -1.019866   -1.042326    0.035722
H       0.841227    2.013323    0.260816
H      -0.350140    1.883800   -1.043106
H      -0.881356    1.876727    0.644668
H       1.484870   -0.480217   -1.805692
H      -0.538909   -2.552063   -1.732559
H       1.875500   -2.847702   -0.593009
H      -0.500157   -0.418391    2.167606
H      -2.098093   -0.972894    0.083508
