25

C      -0.036308    1.518019   -0.010978
C       0.010705    0.008786   -0.004720
C      -0.820953   -0.763888    0.993474
C       0.687801   -0.793616    1.087198
C       1.434061   -1.979736    0.469851
C       2.919188   -1.603864    0.308793
C       1.315193   -3.264039    1.301391
C       0.758435   -2.126334   -0.924923
C       0.291048   -0.709476   -1.322461
H       0.885976    1.943245   -0.425283
H      -0.871180    1.888846   -0.618167
H      -0.163118    1.917676    1.000394
H      -1.345966   -0.183484    1.745498
H      -1.358029   -1.653257    0.678657
H       1.151482   -0.294257    1.933615
H       3.379928   -1.395773    1.281063
H       3.481166   -2.420862   -0.157305
H       3.043922   -0.711347   -0.313007
H       0.266978   -3.529422    1.472304
H       1.798511   -4.107658    0.795022
H       1.794758   -3.148157    2.279908
H       1.437025   -2.565967   -1.662342
H      -0.099481   -2.802759   -0.852464
H      -0.576706   -0.730214   -1.992275
H       1.087511   -0.175069   -1.855671
