15

N      -0.023247    1.311956   -0.060370
C       0.024369   -0.054222    0.070121
O       1.083745   -0.642771    0.249227
C      -1.265969   -0.761789    0.027322
C      -2.536742   -0.266155    0.134673
O      -3.441794   -1.252150    0.103092
C      -2.751699   -2.437655   -0.030142
C      -1.409027   -2.199305   -0.075874
N      -0.353368   -3.077387   -0.260337
H       0.870672    1.768348   -0.159027
H      -0.802674    1.740838   -0.530972
H      -2.926343    0.729430    0.276749
H      -3.354152   -3.327828   -0.074981
H      -0.511304   -4.012637    0.084159
H       0.522395   -2.676193    0.054693
