18

C      -0.191139    1.489301   -0.023993
N       0.065027    0.055058    0.080555
C       1.354223   -0.534087   -0.295544
C       2.536169    0.391657   -0.354679
O       3.270214    0.611086   -1.273191
O       2.679629    1.012396    0.858544
C       1.836343    0.412974    1.853441
C       0.881167   -0.528540    1.127323
C       0.331286   -1.717687    1.872995
H       0.644545    2.141679    0.261426
H      -0.462671    1.713285   -1.059202
H      -1.051488    1.727150    0.608931
H       1.337351   -1.380852   -0.972751
H       2.465727   -0.137376    2.561273
H       1.323981    1.215082    2.394913
H      -0.265153   -1.394821    2.734088
H      -0.316861   -2.302681    1.217339
H       1.137024   -2.360164    2.242805
