15

O      -0.076632   -0.051254    0.003362
C      -0.020869    1.155688    0.008993
C      -1.248628    2.104282    0.032502
C      -0.695217    3.548936    0.031813
N       0.755091    3.343657    0.009507
C       1.868643    4.100336   -0.002802
N       2.966661    3.348415   -0.022993
C       2.533021    2.055991   -0.023623
C       1.150688    2.021971   -0.003518
H      -1.875878    1.897765   -0.838395
H      -1.849331    1.888473    0.919715
H      -1.009371    4.120445   -0.845764
H      -0.983447    4.111403    0.924003
H       1.851301    5.180100    0.003320
H       3.220989    1.224935   -0.038236
