14

C       0.016325   -1.241284    0.259868
C      -0.018022   -0.041800    0.186333
C      -0.069963    1.392329    0.072514
C      -1.307281    1.962686   -0.621762
C      -1.448916    1.498439   -2.001971
N      -1.565072    1.132210   -3.091125
C       0.602378    2.207368    1.131926
N       1.176436    2.132353   -0.214037
H       0.049004   -2.301461    0.319008
H      -2.208290    1.687487   -0.062867
H      -1.233842    3.054195   -0.625474
H       0.185260    3.174424    1.400327
H       1.078652    1.668475    1.944954
H       1.962085    1.487415   -0.234550
