19

C       0.008308    1.492672   -0.031880
C      -0.017708   -0.040186    0.025494
C       0.722596   -0.570125    1.260216
C      -1.461930   -0.529420   -0.016920
O      -1.448976   -1.963746   -0.111002
C      -2.666797   -2.556798   -0.073551
N      -2.522650   -3.917147   -0.120365
O      -3.718807   -1.969263    0.019312
H       1.037956    1.862886   -0.031122
H      -0.484532    1.871709   -0.933244
H      -0.500271    1.928205    0.836272
H       0.482836   -0.429217   -0.871580
H       0.691099   -1.661696    1.300970
H       1.771546   -0.257263    1.251826
H       0.267853   -0.185295    2.181114
H      -2.011777   -0.232328    0.883193
H      -1.997285   -0.120329   -0.880443
H      -1.644544   -4.297800   -0.429918
H      -3.357454   -4.440420   -0.320923
