19

C      -0.053838    1.527596   -0.090420
C       1.493531    1.547801    0.055880
C       1.989564    1.798332    1.480278
O       1.432667    0.898380    2.441181
C       1.155307   -0.405333    1.969858
C       2.122420   -0.821823    0.854843
C       1.521227    0.011007   -0.273551
C      -0.011895   -0.014846    0.016866
O      -0.124682   -0.482479    1.360456
H      -0.643425    2.040528    0.673085
H      -0.374456    1.857434   -1.082798
H       2.033291    2.203563   -0.632483
H       3.088228    1.731194    1.502533
H       1.716922    2.804509    1.816117
H       1.123201   -1.045258    2.852826
H       3.163780   -0.585158    1.085896
H       2.038427   -1.894329    0.658602
H       1.834799   -0.246264   -1.284514
H      -0.691951   -0.599787   -0.605599
