20

C       0.054481    1.274310   -0.372269
O      -0.013406    0.160656    0.500433
C      -1.176498   -0.587586    0.313318
C      -1.476957   -1.641724   -0.725201
N      -0.452114   -2.692610   -1.076123
C       0.837739   -2.441696   -0.383494
C      -0.302347   -2.977537    0.388480
C      -1.412053   -1.979446    0.785055
C      -2.476691   -2.371245    1.769865
H       0.972288    1.815285   -0.132320
H       0.080107    0.962715   -1.425703
H      -0.804488    1.947307   -0.229071
H      -2.076698    0.019669    0.465200
H      -2.325202   -1.564121   -1.396669
H       1.587090   -3.167198   -0.690594
H       1.193262   -1.436152   -0.219659
H      -0.339535   -4.001906    0.748421
H      -2.079523   -2.385365    2.792512
H      -3.316117   -1.669784    1.748713
H      -2.867889   -3.371695    1.552498
