19

C       0.004011    1.543662    0.008166
C       0.002758    0.028711   -0.013669
C       0.299312   -0.726284   -1.341008
C      -0.656557   -1.833423   -0.854179
O      -0.023122   -2.685395    0.110084
C      -0.076768   -1.929301    1.316265
C       0.779498   -0.661073    1.141649
O      -1.397264   -1.410931    1.356485
C      -1.350149   -0.790128    0.090292
H       1.019033    1.940996   -0.108174
H      -0.605723    1.953368   -0.804769
H      -0.394860    1.924787    0.954906
H      -0.111495   -0.199327   -2.209234
H       1.331722   -1.020303   -1.546071
H      -1.209388   -2.448970   -1.563965
H       0.119645   -2.578877    2.167813
H       1.818366   -0.884185    0.887926
H       0.753144   -0.063230    2.057691
H      -2.297155   -0.330430   -0.181185
