14

O      -0.010894   -0.002574    0.081013
C       0.004373    1.192530    0.001102
N      -1.181548    2.021066   -0.058527
C      -1.421944    2.774855    1.186751
C      -0.720989    3.409032    0.023832
C       0.759973    3.384159    0.008462
C       1.201279    2.110449   -0.032213
C       2.528685    1.632148   -0.013573
C       3.650133    1.194695   -0.007020
H      -2.462930    3.015198    1.381985
H      -0.824979    2.518242    2.058021
H      -1.250937    4.139939   -0.580094
H       1.377568    4.272750    0.010565
H       4.638295    0.805473    0.000312
