20

C      -0.116694    1.454921    0.017614
O       0.029836    0.039900    0.010404
C      -1.117573   -0.663553   -0.023998
N      -1.100504   -1.922123   -0.031852
C      -2.373967   -2.612763   -0.063663
C      -2.462589   -3.625786   -1.242001
C      -2.548587   -4.992395   -0.540661
O      -3.137604   -4.725456    0.724329
C      -2.535094   -3.528866    1.180430
H       0.892181    1.867638    0.048803
H      -0.622105    1.811597   -0.888142
H      -0.671389    1.797264    0.899721
H      -2.031768   -0.048612   -0.045062
H      -3.216678   -1.905952   -0.116023
H      -3.359780   -3.437400   -1.837139
H      -1.591251   -3.538635   -1.893757
H      -3.177529   -5.720850   -1.058455
H      -1.543924   -5.426703   -0.413285
H      -1.536320   -3.717998    1.603411
H      -3.174563   -3.100605    1.956660
