15

C      -0.099670    1.490518    0.056306
O      -0.031490    0.061334    0.039378
C      -1.199152   -0.573052   -0.011756
N      -2.316486    0.032833   -0.044178
N      -1.038649   -1.969918   -0.024933
C       0.115811   -2.748234    0.006668
O       1.251642   -2.345416    0.053704
C      -0.211932   -4.170645   -0.024720
C      -0.446961   -5.349586   -0.049399
H       0.936899    1.824667    0.098143
H      -0.592248    1.863375   -0.845052
H      -0.656066    1.839294    0.929749
H      -3.106098   -0.605878   -0.081608
H      -1.902509   -2.488281   -0.063612
H      -0.637266   -6.395327   -0.070601
