9

F       0.000486    0.099618    0.003588
C      -0.016927    1.403593    0.010718
N      -1.211964    1.969856    0.030142
C      -1.140663    3.290498    0.036000
F      -2.278527    3.927212    0.055112
N      -0.052830    4.042461    0.024923
C       1.055065    3.320450    0.005868
F       2.175184    3.988101   -0.006175
N       1.162376    2.002217   -0.002495
