21

C      -0.031557    1.605021    0.031501
C      -0.002424    0.074463    0.007822
C       0.702542   -0.494022   -1.228778
C       0.733392   -2.024607   -1.255506
C       1.447352   -2.577619   -2.508305
C       1.487320   -4.030653   -2.552566
C       1.509739   -5.240934   -2.569896
C       1.534936   -6.601370   -2.589732
C       1.557293   -7.808832   -2.607212
H       0.982368    2.020445    0.025941
H      -0.555961    2.004622   -0.843697
H      -0.540230    1.981121    0.924464
H       0.497905   -0.297927    0.911337
H      -1.028622   -0.313633    0.048312
H       0.202575   -0.122753   -2.134502
H       1.730468   -0.107041   -1.270694
H       1.240006   -2.405873   -0.361212
H      -0.288011   -2.421588   -1.225087
H       0.945900   -2.200575   -3.410154
H       2.472635   -2.184874   -2.547006
H       1.576755   -8.869981   -2.622364
