16

N       0.081611    1.004568   -0.828904
C       0.038324   -0.016170   -0.092983
C      -1.227944   -0.735557    0.344716
C      -0.731557   -1.987295    1.059485
C       0.176403   -2.905287    0.233276
C       0.780867   -1.836344    1.084214
O       1.144859   -0.639541    0.438217
C      -1.470223   -2.520932    2.161608
C      -2.100825   -2.965004    3.084634
H       1.046519    1.301745   -0.981565
H      -1.792719   -0.098338    1.030843
H      -1.867592   -0.940877   -0.516440
H       0.262403   -3.929682    0.575433
H       0.192721   -2.768081   -0.843345
H       1.389301   -2.052348    1.952489
H      -2.656983   -3.357309    3.899670
