13

N      -0.044702    1.435114   -0.131967
C      -0.037004    0.044663   -0.044980
C      -1.171645   -0.750237    0.039541
N      -1.138632   -2.093707    0.056222
C       0.057561   -2.622747   -0.010839
F       0.124896   -3.943858    0.001033
N       1.226925   -1.999590   -0.085470
C       1.170409   -0.680469   -0.101933
O       2.320243    0.016408   -0.167801
H       0.821564    1.864426    0.160802
H      -0.845701    1.877929    0.295468
H      -2.156235   -0.291084    0.095761
H       3.039168   -0.630961   -0.187964
