19

C      -0.053356    1.578615   -0.004490
C       0.004183    0.053324   -0.014779
C       0.910478   -0.545018   -1.092216
C       2.258574   -0.668425   -0.425247
O       2.150355   -0.198902    0.912459
C       0.787305   -0.571663    1.164766
C       0.794611   -2.085858    0.804908
O      -0.481495   -2.692901    0.734516
C       1.400641   -1.899635   -0.574779
H       0.946125    2.003222    0.123589
H      -0.469930    1.961641   -0.941920
H      -0.686379    1.943629    0.811691
H      -0.998219   -0.380637   -0.058420
H       0.795131   -0.333994   -2.146956
H       3.222275   -0.505255   -0.885522
H       0.505843   -0.288384    2.178423
H       1.467451   -2.640485    1.473653
H      -0.798538   -2.822415    1.634203
H       1.653522   -2.728270   -1.221438
