13

C      -0.035621    1.500049   -0.023585
C      -0.011351    0.009590    0.006404
N      -0.027044   -0.734888   -1.097915
N       0.004441   -1.980855   -0.633661
N       0.039284   -2.132276    0.676710
C       0.030665   -0.865829    1.124022
C       0.059337   -0.527631    2.496126
C       0.082644   -0.190293    3.651000
H       0.855601    1.918038    0.455724
H      -0.076194    1.853148   -1.055435
H      -0.904547    1.890362    0.516038
H       0.001326   -2.774617   -1.253822
H       0.103697    0.093913    4.673897
