17

C       0.064440    1.546963    0.052296
C       0.128167    0.037666    0.041000
C       1.359214   -0.724319   -0.240525
O       2.583267   -0.146740   -0.438221
C       0.738158   -0.787680    1.231372
C       1.542938   -0.104872    2.258159
O       2.295371    0.832127    2.042027
C       0.044840   -1.970801    1.639976
C      -0.538932   -2.967909    1.977062
H       0.968777    2.000486    0.457123
H      -0.071098    1.907891   -0.972668
H      -0.785169    1.893284    0.647909
H      -0.781680   -0.446889   -0.302355
H       1.271189   -1.664881   -0.774671
H       2.732487    0.499530    0.277554
H       1.452801   -0.527424    3.276849
H      -1.051576   -3.848381    2.276172
