14

O      -0.085628    0.036706   -0.034519
C      -0.072669    1.222010    0.039330
C      -1.154527    2.333324   -0.005335
C       0.055437    3.232668   -0.339705
C       0.771159    3.280651    0.940095
C      -0.173801    3.097904    2.111422
C      -1.490530    2.641179    1.457493
O      -2.557809    2.522331    1.988803
N       1.061665    2.122302    0.004974
H      -2.006118    2.202163   -0.666559
H       0.193031    3.846494   -1.218536
H       1.656090    3.894106    1.057811
H       0.160609    2.359481    2.847484
H      -0.326748    4.044207    2.639491
