14

N      -0.203633    1.318638    0.336595
C      -0.062876    0.095136    0.105062
O      -1.086517   -0.790088    0.224449
C      -0.664974   -2.102885   -0.117486
C      -1.060793   -2.529496   -1.555216
C       0.387784   -2.235055   -2.002484
O       0.962250   -2.244013   -3.045857
C       0.819268   -1.907546   -0.533884
O       1.092436   -0.541224   -0.279011
H       0.672388    1.812687    0.187238
H      -0.910656   -2.785714    0.695085
H      -1.327085   -3.586067   -1.659293
H      -1.837428   -1.919670   -2.023275
H       1.600728   -2.535681   -0.101819
