21

C       0.148597    1.555404   -0.233869
C       0.021033    0.038016   -0.098989
O       0.500567   -0.407854    1.169620
C      -1.430258   -0.438438   -0.200081
C      -1.545989   -1.955724   -0.214014
C      -1.351330   -2.847087    1.045003
C      -2.723466   -2.402979    1.604079
C      -2.863184   -2.724620    0.096391
O      -2.049004   -3.940939    0.319409
H       1.194577    1.868982   -0.137222
H      -0.209972    1.896392   -1.210557
H      -0.430414    2.058881    0.546917
H       0.602058   -0.441111   -0.905524
H       1.422953   -0.146174    1.250363
H      -1.990296    0.006801    0.628732
H      -1.863016   -0.040823   -1.126448
H      -1.035367   -2.387435   -1.080688
H      -0.433542   -3.095533    1.574342
H      -3.199741   -3.127123    2.265909
H      -2.849344   -1.374673    1.946846
H      -3.764011   -2.829862   -0.510715
