17

O       0.148762    1.326360   -0.249893
C       0.053405   -0.060731   -0.035011
C       0.304885   -0.558050    1.401343
C       0.104193   -2.055138    1.452193
C      -1.105084   -1.164591    1.475921
O      -2.009252   -1.135667    2.519554
C      -1.384953   -0.625984    0.093023
C      -2.611112    0.000822   -0.392891
O      -2.158584   -1.263573   -0.908781
H      -0.411064    1.766531    0.400024
H       0.671722   -0.530632   -0.805093
H       0.863808   -0.018089    2.154653
H       0.332536   -2.677706    0.590034
H       0.338238   -2.505001    2.412533
H      -2.371016   -2.021040    2.633750
H      -3.509982   -0.041097    0.219941
H      -2.544066    0.837632   -1.086194
