20

C      -0.026664    1.590982   -0.038361
C       0.019512    0.065515    0.015471
C      -1.370553   -0.528350   -0.217029
C       1.106562   -0.665395   -0.828212
N       1.675915   -1.383455    0.366883
C       2.177291   -0.321996    1.244562
C       0.711816   -0.564866    1.251379
C       0.028410   -1.095308    2.384864
C      -0.574856   -1.505998    3.342170
H       0.955681    2.042212    0.126295
H      -0.387835    1.929582   -1.016102
H      -0.709458    1.985249    0.722357
H      -1.748357   -0.233737   -1.202178
H      -1.349449   -1.621028   -0.170360
H      -2.079481   -0.175772    0.538943
H       0.700111   -1.384369   -1.542152
H       1.841839   -0.031453   -1.336135
H       2.732232   -0.699074    2.097804
H       2.580844    0.587659    0.804060
H      -1.100360   -1.880068    4.185666
