20

C       0.129615    1.314637   -0.659870
C      -0.041277   -0.088464   -0.110858
C       1.083169   -1.045020   -0.254912
N       0.753807   -0.485411    1.071950
C      -1.457352   -0.645347   -0.059872
C      -2.390114    0.166099    0.870877
O      -3.619686   -0.494657    1.119804
C      -2.100703   -0.833099   -1.420651
O      -1.552914   -0.648164   -2.479932
H       1.187631    1.595638   -0.668322
H      -0.245246    1.374189   -1.684518
H      -0.405207    2.054088   -0.052771
H       0.888843   -2.108385   -0.365515
H       1.981416   -0.699489   -0.759343
H       1.416099    0.250722    1.305377
H      -1.399053   -1.650448    0.386538
H      -1.844218    0.380505    1.799500
H      -2.657781    1.123311    0.412148
H      -3.437757   -1.257573    1.678217
H      -3.159173   -1.166174   -1.370969
