22

C       1.322884    0.108633   -0.333406
C       0.747995   -1.143130   -0.899592
N      -0.066445   -0.254740   -0.078031
C      -0.369750   -0.720838    1.260323
C      -0.993881    0.370152    2.184192
C      -2.332803    0.101365    1.434797
C      -1.786798   -1.357203    1.402906
C      -1.795118   -1.739043    2.894729
C      -1.189730   -0.420221    3.491235
H       2.035403    0.001532    0.483487
H       1.477942    0.981283   -0.961492
H       0.474916   -1.202687   -1.949322
H       1.077903   -2.083317   -0.459508
H       0.466424   -1.300414    1.693099
H      -0.557686    1.367324    2.253710
H      -3.265817    0.284723    1.976315
H      -2.355680    0.558402    0.447555
H      -2.147731   -2.096556    0.686991
H      -2.804358   -1.944163    3.262501
H      -1.176602   -2.616684    3.106374
H      -0.248174   -0.594132    4.021176
H      -1.873295    0.084128    4.179905
