18

O      -0.043115    1.397071   -0.254928
C       0.040745   -0.015217   -0.119095
C      -1.374740   -0.536409    0.032381
C      -2.306449   -0.517005   -1.223172
C      -2.560828   -2.030140   -1.042438
O      -1.656202   -2.847597   -1.816435
C      -0.763486   -3.006095   -0.690196
C      -1.610307   -2.068854    0.189907
H       0.834622    1.733130   -0.457920
H       0.521047   -0.464872   -1.001720
H       0.640004   -0.298592    0.763019
H      -1.836841    0.001503    0.865407
H      -3.190556    0.115320   -1.112971
H      -1.815371   -0.278540   -2.169607
H      -3.586957   -2.406505   -1.068164
H      -0.749049   -4.046481   -0.339388
H       0.264300   -2.703521   -0.924132
H      -1.886626   -2.433236    1.178745
