25

C      -0.405302    1.505559    0.290951
C       0.016402    0.061583    0.066868
O       0.367482   -0.495359    1.317940
C       0.530780   -1.910169    1.363939
C       1.820605   -2.390258    0.656965
C       1.639917   -2.852740   -0.793696
C       0.519867   -2.284177    2.848020
C      -0.761775   -1.873521    3.575507
O      -0.776393   -2.299238    4.931827
H       0.409619    2.074176    0.748187
H      -0.667009    1.979507   -0.660017
H      -1.272012    1.555278    0.956208
H      -0.805914   -0.514768   -0.389039
H       0.865150    0.025141   -0.633409
H      -0.340983   -2.381216    0.874098
H       2.549006   -1.572667    0.714910
H       2.246874   -3.219831    1.233061
H       1.250753   -2.059136   -1.437586
H       2.591714   -3.186897   -1.218946
H       0.940363   -3.694125   -0.851083
H       0.648807   -3.367595    2.946770
H       1.385406   -1.810748    3.332785
H      -0.908502   -0.789633    3.488411
H      -1.626351   -2.358269    3.106853
H      -0.085630   -1.815007    5.394933
