18

C      -0.083636    1.555012   -0.142381
C      -0.016538    0.036986   -0.038450
C      -1.373135   -0.591002    0.272638
C       0.700407   -0.676540   -1.207688
O       2.041225   -0.183563   -1.270985
C       1.751233   -1.218520   -0.337678
C       1.126902   -0.564829    0.912517
C       1.964446    0.349205    1.669825
N       2.618507    1.084569    2.276650
H       0.886854    1.969142   -0.422830
H      -0.819481    1.850802   -0.898082
H      -0.383053    2.000262    0.811784
H      -2.103784   -0.324015   -0.498531
H      -1.315314   -1.684308    0.314015
H      -1.756741   -0.234252    1.233944
H       0.267621   -1.069274   -2.120970
H       2.338022   -2.127578   -0.386500
H       0.701122   -1.311112    1.588710
