13

O       0.060491    0.054747   -0.017715
C       0.006031   -0.000601    1.190879
H       0.922744   -0.058199    1.811863
C      -1.213740    0.001253    1.949490
C      -2.230165    0.000970    2.620468
C      -3.353928    0.000730    3.360838
C      -4.374524    0.000641    4.030614
C      -5.501495    0.000504    4.771188
C      -6.515929    0.000463    5.436831
C      -7.728541    0.000230    6.229922
H      -8.318198   -0.904110    6.042124
H      -8.355770    0.865237    5.986892
H      -7.501120    0.038135    7.301018
