15

C      -0.029808    1.525938    0.049035
C      -0.003300    0.024136   -0.008464
C      -0.024000   -0.677380   -1.179352
C       0.001219   -2.128119   -1.243838
O      -0.015144   -2.817122   -2.251097
N       0.049090   -2.731212    0.027404
C       0.070977   -2.062962    1.217149
C       0.045694   -0.709540    1.214835
F       0.066504   -0.032307    2.373159
H       0.855353    1.911322    0.566059
H      -0.064961    1.955376   -0.953605
H      -0.899669    1.878458    0.613366
H      -0.061064   -0.166457   -2.134194
H       0.067465   -3.741083    0.012748
H       0.108118   -2.645120    2.128316
