17

C      -0.033723    1.399072   -0.465840
C      -0.404935   -0.075264   -0.250555
N       0.596882   -0.786002    0.523642
C       0.477675   -0.833708    1.793258
N      -0.500481   -0.332286    2.606494
N       1.487232   -1.564710    2.466838
C       1.711981   -1.695470    3.802990
O       1.040435   -1.218985    4.699833
H       0.952467    1.475442   -0.932408
H      -0.764242    1.894838   -1.113517
H       0.006371    1.945647    0.482825
H      -1.412732   -0.145057    0.193023
H      -0.474011   -0.565106   -1.228632
H      -1.077605    0.403265    2.239588
H      -0.319302   -0.351126    3.602840
H       2.139462   -1.987201    1.822004
H       2.608685   -2.309807    4.001917
