8

C      -0.011711    1.499738   -0.012133
C      -0.029197   -0.003387    0.071512
O      -0.091640   -0.645929    1.087322
C       0.038311   -0.696903   -1.237486
N       0.091363   -1.229827   -2.262281
H       0.900931    1.833707   -0.518149
H      -0.856639    1.848644   -0.616181
H      -0.064165    1.921315    0.992038
