15

C      -0.286832    1.371801    0.097347
N      -0.059906   -0.057200   -0.040788
C      -0.017075   -0.851139    1.174568
C      -1.298906   -0.841229    1.894714
N      -2.302743   -0.809755    2.465324
C       0.123933   -0.720279   -1.232654
O       0.318645   -1.921412   -1.302990
C       0.081870    0.098538   -2.433683
C       0.065359    0.681980   -3.484981
H       0.516189    1.833927    0.684799
H      -0.310852    1.832640   -0.888641
H      -1.240672    1.561866    0.601665
H       0.235844   -1.874533    0.886081
H       0.762345   -0.476076    1.850534
H       0.050130    1.194345   -4.416380
