21

C      -0.372047    1.390033    0.014893
C       0.069894   -0.076202    0.027698
C       0.936650   -0.428702    1.232154
C       0.201113   -0.539799    2.604277
N       0.475323   -1.980152    2.600255
C       1.305480   -1.933863    1.386784
C       0.638997   -2.731066    3.737786
N       1.288969   -3.942914    3.528441
O       0.271144   -2.352686    4.835467
H       0.492241    2.062479   -0.019497
H      -0.998731    1.607427   -0.855172
H      -0.950579    1.640732    0.910556
H      -0.812050   -0.730808    0.017596
H       0.628369   -0.299728   -0.890750
H       1.810100    0.227611    1.269844
H       0.672165   -0.017887    3.443127
H      -0.865840   -0.291557    2.591756
H       0.956118   -2.584828    0.574695
H       2.366330   -2.139166    1.573214
H       1.176019   -4.382945    2.627402
H       1.189900   -4.572983    4.310098
