16

C       0.036601    1.502036    0.000907
C       0.035599    0.010978    0.089472
O       0.786698   -0.706452   -0.958572
C       0.821001   -1.801089   -0.029204
C      -0.664620   -2.154030    0.395678
N      -0.285139   -1.815833    1.809565
C       0.709118   -0.898415    1.207987
C      -1.270714   -0.810810   -0.042419
O      -2.381055   -0.484341   -0.349078
H       1.056508    1.895875    0.006708
H      -0.462538    1.827981   -0.916547
H      -0.509308    1.926663    0.849395
H       1.549159   -2.581466   -0.234945
H      -1.184638   -3.088100    0.200816
H      -1.032419   -1.370467    2.344829
H       1.521458   -0.504650    1.817777
