18

O      -0.018002    1.375402   -0.053083
C      -0.003654   -0.019434   -0.005150
C      -0.472397   -0.715179    1.264682
C      -1.362370   -0.697087    0.047652
C      -2.606328    0.128492   -0.003475
C      -3.486282    0.088472   -1.228163
C      -3.953589   -0.552420    0.053916
C       1.049119   -0.641387   -0.779698
N       1.903114   -1.129949   -1.388590
H       0.752505    1.702632    0.425403
H       0.009890   -1.640534    1.557328
H      -0.728351   -0.044394    2.078137
H      -1.417758   -1.631286   -0.504321
H      -2.524363    1.087144    0.495706
H      -3.955223    1.011628   -1.548893
H      -3.191053   -0.564679   -2.042700
H      -3.973041   -1.636226    0.101553
H      -4.744651   -0.070664    0.617597
