22

C      -0.450044    1.547326    0.344071
C      -0.116901    0.067747    0.182197
C       0.315449   -0.445164   -1.198542
C       1.656135    0.118187   -1.590607
C       1.608169   -1.029128   -0.618401
C       2.275955   -2.349472   -0.881060
C       1.220889   -0.522411    0.785603
C       2.193028    0.377499    1.541676
H       0.344033    2.195926   -0.037524
H      -1.366794    1.795997   -0.202259
H      -0.612180    1.805589    1.396538
H      -0.961114   -0.522498    0.553045
H      -0.349475   -0.879949   -1.937283
H       1.988088   -0.147640   -2.590020
H       1.960060    1.116758   -1.287437
H       2.256469   -2.599672   -1.947233
H       3.327438   -2.337450   -0.567593
H       1.780169   -3.163158   -0.338137
H       0.971736   -1.378541    1.422610
H       2.503251    1.244400    0.950772
H       1.745595    0.752319    2.468943
H       3.099307   -0.175095    1.814283
