16

C      -0.031366    1.469097    0.007206
N      -0.002547    0.016418    0.003718
C       0.009682   -0.739937   -1.174397
O      -0.083045   -0.264799   -2.276776
C       0.191582   -2.203407   -0.783527
C      -0.015792   -2.229234    0.732383
O       0.937971   -3.014122    1.403711
C       0.093831   -0.757494    1.144600
O       0.249954   -0.358900    2.275557
H       0.787609    1.861851   -0.599731
H      -0.975038    1.830626   -0.409041
H       0.074438    1.798411    1.041149
H      -0.486344   -2.839488   -1.353664
H       1.217939   -2.503288   -1.018337
H      -1.041455   -2.554723    0.974047
H       0.997027   -2.661040    2.301891
