23

C      -0.794491    1.292933   -2.505330
C       0.257362    0.476578   -1.772965
O      -0.084370   -0.893512   -1.890827
C       0.716374   -1.788783   -1.135967
C      -0.023020   -3.126036   -1.071616
C      -1.366940   -3.034947   -0.346075
C       2.088196   -1.955001   -1.768039
C       3.283705   -1.264753   -1.266213
O       3.056471   -2.643619   -0.973912
H      -0.829764    1.013024   -3.562077
H      -1.784048    1.120305   -2.072828
H      -0.564839    2.360551   -2.436854
H       1.254147    0.670083   -2.197560
H       0.297788    0.763174   -0.708784
H       0.855186   -1.401047   -0.111415
H      -0.174241   -3.482940   -2.098161
H       0.635871   -3.846617   -0.575325
H      -1.232708   -2.725505    0.696677
H      -2.018154   -2.304782   -0.832795
H      -1.877282   -4.002670   -0.342466
H       2.066483   -2.253766   -2.818006
H       4.115154   -1.059688   -1.939248
H       3.195668   -0.588316   -0.416578
