17

C      -0.120236    1.548117   -0.170634
C       0.002284    0.055928    0.004800
O      -1.126368   -0.683399   -0.399723
C       1.284347   -0.709404   -0.179572
O       2.417611    0.042490    0.269757
C       1.923510   -0.014060    1.647768
C       1.926379    1.254569    2.357548
C       1.949690    2.280159    2.984107
C       0.620211   -0.667567    1.185612
H       0.810512    2.056428    0.081758
H      -0.356523    1.777326   -1.217720
H      -0.924187    1.947954    0.454267
H      -1.241808   -0.543084   -1.346450
H       1.443994   -1.511289   -0.891575
H       2.533864   -0.738625    2.202543
H       1.961378    3.192221    3.528624
H       0.068671   -1.421994    1.728724
