25

C      -0.100008    1.622617    0.151411
C      -0.007529    0.099413    0.023979
C      -1.382362   -0.565514   -0.104559
O      -2.048582   -0.167172   -1.302505
C      -1.364508   -2.116964    0.053924
C      -0.509853   -2.789776   -1.022468
O      -0.731204   -2.442351    1.299276
C      -2.819271   -2.633227    0.049278
C      -2.974295   -4.144820    0.238157
H       0.893799    2.079637    0.176708
H      -0.653608    2.050459   -0.689331
H      -0.622322    1.909623    1.070955
H       0.598109   -0.158135   -0.856428
H       0.507101   -0.333048    0.887008
H      -2.025450   -0.180000    0.701267
H      -1.435606   -0.302161   -2.033170
H       0.524049   -2.439888   -0.974430
H      -0.497205   -3.871868   -0.878748
H      -0.907775   -2.584860   -2.021202
H      -1.296936   -2.117139    2.008819
H      -3.350595   -2.113878    0.861160
H      -3.301587   -2.303426   -0.875531
H      -4.025114   -4.406196    0.395796
H      -2.627977   -4.704915   -0.635583
H      -2.402907   -4.489391    1.105115
