19

C      -0.538821    1.447546   -0.138792
N      -0.165842    0.048371   -0.070868
C      -0.122904   -0.812452   -1.137943
C       0.224160   -2.061732   -0.678029
C       0.393659   -1.955422    0.726682
C       0.147617   -0.643616    1.084759
C       0.176591    0.032276    2.395105
C       1.017047   -0.493735    3.495523
N       1.395659    0.770828    2.842528
H       0.091413    2.039821    0.528870
H      -0.398996    1.806181   -1.160439
H      -1.586934    1.602837    0.143574
H      -0.340045   -0.458122   -2.133615
H       0.346207   -2.947343   -1.282262
H       0.654246   -2.749664    1.409514
H      -0.732519    0.560330    2.678916
H       0.676972   -0.395856    4.522285
H       1.617666   -1.376717    3.298766
H       2.141527    0.574249    2.177284
