23

O      -0.048200    1.434006    0.004596
C       0.014174    0.016599    0.065116
C      -1.407093   -0.522096   -0.018339
C      -1.469929   -2.049697    0.047280
C      -2.891754   -2.606960   -0.114299
O      -3.479984   -2.188359   -1.346577
C      -2.929719   -4.112498    0.044209
C      -3.155375   -4.732142    1.401752
C      -4.231016   -4.804630    0.347394
H       0.848133    1.776942    0.062934
H       0.615732   -0.391114   -0.764871
H       0.488448   -0.320611    1.002233
H      -1.991754   -0.087039    0.801834
H      -1.868308   -0.175533   -0.948193
H      -0.835812   -2.485199   -0.740642
H      -1.060556   -2.409327    1.000254
H      -3.536343   -2.159507    0.654162
H      -3.005180   -2.629143   -2.059977
H      -2.241037   -4.642982   -0.612364
H      -2.612280   -5.636408    1.653072
H      -3.313222   -4.063986    2.242484
H      -5.109716   -4.180716    0.471173
H      -4.428986   -5.761811   -0.121976
