19

C      -0.137845    1.466924    0.051855
N       0.042898    0.014128    0.040248
C       0.717899   -0.487935   -1.140391
C       2.237177   -0.570454   -0.952974
O       2.767947   -0.366550    0.109599
C       0.147128   -1.893542   -1.533483
C      -1.363725   -1.827999   -1.820619
C       0.863088   -2.456323   -2.683228
N       1.418665   -2.883210   -3.602958
H       0.795776    2.038589   -0.070202
H      -0.825034    1.758481   -0.749303
H      -0.593146    1.759683    1.001710
H       0.613267   -0.242640    0.842347
H       0.530900    0.181454   -1.991389
H       2.825664   -0.851243   -1.849580
H       0.316182   -2.561873   -0.679571
H      -1.563006   -1.215424   -2.704796
H      -1.765704   -2.827987   -1.999661
H      -1.861515   -1.382248   -0.958646
