18

C       0.063060    1.512335   -0.165273
C       0.014601    0.002492   -0.027161
O       0.674655   -0.553117   -1.177749
C       0.733518   -1.895310   -1.239119
N       0.235402   -2.640463   -0.333390
C       1.410401   -2.345780   -2.423179
C       1.967775   -2.785373   -3.396472
C       2.648699   -3.281756   -4.584238
O       2.631023   -4.701515   -4.587518
H       1.096590    1.867755   -0.204405
H      -0.446939    1.837289   -1.076516
H      -0.430682    1.978989    0.692255
H       0.522085   -0.346333    0.878229
H      -1.011992   -0.376216    0.012670
H       0.382466   -3.620886   -0.561820
H       2.148212   -2.868162   -5.475148
H       3.678913   -2.889345   -4.588486
H       3.086313   -4.993554   -5.383848
