20

C      -0.198111    1.514259    0.016875
C       0.067937    0.001022    0.023068
O       0.922687   -0.249945    1.137858
C      -1.281386   -0.676176    0.302659
O      -2.207196   -0.744081   -0.467810
C       0.738144   -0.487263   -1.275626
C       2.068623    0.173411   -1.589608
C       0.522414   -1.908001   -1.686200
N      -0.071091   -0.804486   -2.455412
H       0.743232    2.058095   -0.078900
H      -0.859998    1.777033   -0.811400
H      -0.669321    1.818489    0.956090
H       1.265157   -1.146882    1.049679
H      -1.348844   -1.080728    1.337519
H       2.740596    0.138883   -0.727578
H       2.542659   -0.335974   -2.431602
H       1.931107    1.220331   -1.876296
H       1.320834   -2.448815   -2.187401
H      -0.140546   -2.536252   -1.094646
H      -1.062274   -0.732973   -2.230577
