18

O      -0.103433    1.408858    0.065932
C       0.002458   -0.002725    0.013359
C       0.523724   -0.590537    1.336232
C      -0.616782   -0.313522    2.331177
C      -1.907281   -0.262819    1.450902
C      -1.402620   -0.615488    0.035891
N      -1.284347   -2.078330   -0.108033
C      -0.274941   -2.613249    0.436177
O       0.712294   -2.017111    1.153601
H       0.784590    1.780318    0.057768
H       0.588208   -0.337513   -0.852184
H       1.498441   -0.212372    1.651598
H      -0.645121   -1.092963    3.095903
H      -0.448416    0.640574    2.835703
H      -2.669231   -0.973363    1.777184
H      -2.345040    0.737589    1.459322
H      -2.047515   -0.235778   -0.758381
H      -0.097247   -3.684765    0.370554
