18

O      -0.007128    0.027299   -0.180856
C       0.031606    1.220121   -0.215175
O       1.043666    1.932611    0.312348
C       1.018132    3.361399    0.190182
C       1.431983    4.044332    1.535340
N       2.677693    4.770319    1.163859
C       2.236131    5.353614   -0.168315
C       2.176706    3.887263   -0.665278
C       3.360144    3.707493    0.320517
H      -0.750794    1.858479   -0.671169
H       0.034738    3.673147   -0.177804
H       0.683318    4.747888    1.906581
H       1.634356    3.297067    2.305315
H       1.318162    5.949000   -0.133024
H       3.044910    5.934931   -0.615359
H       2.199273    3.593599   -1.715812
H       4.309082    4.087578   -0.061987
H       3.498764    2.740257    0.807663
