19

C       0.159414    1.500522   -0.190121
C      -0.077944    0.012984    0.127281
C       0.630117   -0.446117    1.361057
C       0.157952   -0.947160    2.507399
C       1.394509   -1.383024    3.281349
O       1.886703   -2.591372    2.643899
C       2.444529   -2.115539    1.415232
C       2.148860   -0.582219    1.502589
O       2.349471   -0.410598    2.916151
H       1.222808    1.715059   -0.336474
H      -0.368204    1.789353   -1.104026
H      -0.198084    2.134058    0.626826
H      -1.151695   -0.174488    0.236310
H       0.253946   -0.589718   -0.730135
H      -0.866707   -1.153267    2.785069
H       1.346845   -1.537304    4.356905
H       3.522410   -2.308148    1.401612
H       1.969394   -2.601155    0.556322
H       2.796155    0.072744    0.922786
