19

C       0.026342    1.451613   -0.001002
N      -0.035364    0.008438   -0.003088
C      -0.041021   -0.805122   -1.136679
C       0.006874   -2.111181   -0.717701
N      -0.095046   -3.279936   -1.503571
C       0.066003   -2.120820    0.716227
C       0.090409   -3.327151    1.602687
C       0.048536   -0.795156    1.093109
O       0.093535   -0.200589    2.317429
H       1.037692    1.821441   -0.213796
H      -0.655865    1.851313   -0.756935
H      -0.279356    1.822847    0.977882
H      -0.101306   -0.372183   -2.121602
H       0.004456   -3.078536   -2.491161
H       0.604661   -3.969128   -1.251348
H       1.073203   -3.817979    1.641743
H      -0.176695   -3.081311    2.638468
H      -0.630994   -4.079544    1.262989
H       0.089803   -0.893773    2.984343
