19

C      -0.001395    1.365619    0.129003
N       0.058829   -0.082824    0.093167
C       0.545068   -0.605939   -0.937971
O       0.616318   -1.972334   -1.003044
C       1.155181   -2.521076   -2.149845
O       1.559058   -1.858815   -3.079986
N       1.162459   -3.876729   -2.076105
C       1.695704   -4.629209   -3.198461
C       0.671916   -4.653829   -0.949902
H       0.559931    1.730126    0.996409
H       0.395085    1.854441   -0.774350
H      -1.041259    1.681593    0.267440
H       0.935288   -0.106344   -1.826933
H       2.024242   -3.930997   -3.965743
H       2.544623   -5.245559   -2.877703
H       0.927782   -5.293579   -3.613625
H      -0.136452   -5.321230   -1.274266
H       1.478155   -5.274309   -0.538747
H       0.297587   -3.996902   -0.170087
