21

C       0.008332    1.482157    0.014419
C      -0.143632   -0.024632   -0.086426
O       0.791204   -0.500086   -1.050999
C       0.795706   -1.894142   -1.232250
C      -0.468695   -2.350899   -1.855650
N      -1.485622   -2.638926   -2.322480
C       2.011316   -2.282710   -2.104175
C       3.307550   -1.712374   -1.519148
N       1.991734   -3.738064   -2.257232
H       1.023451    1.749781    0.321207
H      -0.196054    1.953261   -0.950869
H      -0.694345    1.882265    0.751058
H       0.053649   -0.506055    0.885003
H      -1.164906   -0.295345   -0.389241
H       0.885413   -2.411376   -0.260274
H       1.840566   -1.846537   -3.094589
H       4.153260   -1.972642   -2.163144
H       3.259514   -0.625772   -1.423131
H       3.499694   -2.134116   -0.524433
H       2.550794   -4.015724   -3.056129
H       2.409007   -4.182631   -1.443847
