19

C       0.004847    1.488246    0.078266
C      -0.069143    0.000663   -0.008213
C      -0.060136   -0.801575   -1.080872
C       0.017963   -2.248515   -0.599737
C      -0.805052   -2.137904    0.710315
C      -0.021822   -0.910346    1.226878
C       1.424671   -1.459165    1.175237
O       2.337344   -1.174031    1.903584
C       1.448611   -2.437410   -0.020400
H       0.913600    1.804198    0.605625
H       0.009416    1.947088   -0.914322
H      -0.842116    1.897615    0.642750
H      -0.002764   -0.492410   -2.117627
H      -0.292809   -3.013655   -1.311051
H      -1.858924   -1.911127    0.532461
H      -0.718557   -3.020253    1.354305
H      -0.289949   -0.460348    2.181279
H       1.618973   -3.452224    0.357805
H       2.254096   -2.199812   -0.717927
