19

C      -0.367528   -1.107547   -0.715967
C      -0.186718    0.016525   -0.328873
C       0.042946    1.368828    0.164127
C      -0.492373    1.506711    1.623172
O       0.131812    2.555659    2.348582
C       1.508238    2.732663    2.030468
C       1.640525    3.261047    0.578736
C       1.543623    1.768441    0.155418
C       2.179137    1.420736    1.533790
H      -0.533180   -2.095655   -1.067716
H      -0.492210    2.072483   -0.486895
H      -1.565226    1.714760    1.626213
H      -0.340031    0.548963    2.137366
H       1.947773    3.293258    2.857279
H       0.864730    3.950824    0.235775
H       2.630628    3.678770    0.378402
H       2.037781    1.439083   -0.759576
H       3.265524    1.531714    1.510297
H       1.925145    0.476091    2.018927
