19

O       0.016947   -0.192351    0.147564
C       0.001060    1.005770    0.026814
C       1.220216    1.903431   -0.016116
C       1.385118    2.622570    1.370467
C       2.471004    1.577773    1.740404
C       2.552174    1.149773    0.250354
C       1.153065    2.784580   -1.244326
C       0.445966    4.072761   -1.271224
O       1.872932    4.016741   -1.207237
H      -0.963850    1.561609   -0.035967
H       1.794482    3.624184    1.222790
H       0.498996    2.683159    2.008800
H       3.383629    1.967988    2.194237
H       2.077569    0.779226    2.373398
H       2.532936    0.079865    0.038984
H       3.386544    1.618352   -0.276449
H       1.260088    2.248400   -2.189563
H       0.033531    4.445406   -2.207092
H      -0.043268    4.436917   -0.369050
