17

C      -0.019047    1.560439   -0.022548
C       0.058720    0.048226   -0.058270
C      -1.129911   -0.641644    0.536254
O      -2.081499   -0.070374    1.002597
C       0.687695   -0.773231   -1.157853
C       1.884779   -0.039870   -1.781211
C       2.526701   -0.050433   -0.368057
O       3.611882    0.235894    0.044665
C       1.340673   -0.762090    0.233452
H       0.881765    2.035819   -0.413042
H      -0.877563    1.908243   -0.604218
H      -0.164634    1.900025    1.006075
H      -1.075900   -1.755079    0.512296
H       0.165554   -1.601588   -1.619632
H       2.472081   -0.678442   -2.447958
H       1.704583    0.919227   -2.271326
H       1.364140   -1.508615    1.018564
