19

C      -0.402049    1.625450    0.147669
C      -0.145157    0.132380    0.101374
C      -1.371479   -0.667383   -0.345351
O      -1.686889   -0.376563   -1.690478
O       0.947938   -0.190295   -0.814310
C       1.728045   -0.797051    0.231198
C       0.635596   -0.516224    1.298678
C       1.004094    0.314088    2.424304
C       1.320327    1.002467    3.358239
H       0.520588    2.174334    0.346325
H      -0.816197    1.949019   -0.810636
H      -1.121924    1.864419    0.936972
H      -1.172377   -1.742409   -0.205185
H      -2.246240   -0.404587    0.259665
H      -0.866539   -0.511273   -2.182863
H       1.929768   -1.857051    0.040156
H       2.672907   -0.269511    0.396565
H       0.147304   -1.429080    1.653486
H       1.596191    1.609158    4.185052
