18

C      -0.357093    1.398308    0.042747
C       0.231823   -0.014091    0.110813
C       0.817128   -0.469501   -1.216439
C       0.643527   -1.868598   -1.659465
O      -0.167225   -0.836480   -2.209998
C       1.945982    0.285757   -1.711128
C       2.888580    0.932616   -2.091064
C       4.025011    1.707462   -2.566371
H       0.409324    2.129825   -0.229787
H      -1.152644    1.446190   -0.706662
H      -0.779000    1.690281    1.008767
H       1.018610   -0.061213    0.873212
H      -0.544575   -0.730480    0.399875
H       1.372214   -2.306922   -2.339155
H       0.132741   -2.571367   -1.001175
H       4.834442    1.056823   -2.915136
H       3.737730    2.357475   -3.400160
H       4.428969    2.345319   -1.772684
