16

C       0.532003    0.137193   -1.447904
C      -0.007588   -0.082133   -0.021661
C      -1.464809   -0.457511   -0.014407
C      -1.848919   -1.906401    0.172416
O      -3.226527   -2.150470    0.086963
N      -2.442590    0.347233   -0.165421
O      -2.039798    1.678789   -0.332860
H       1.593838    0.398065   -1.417506
H       0.423995   -0.766051   -2.056438
H      -0.009716    0.948475   -1.938853
H       0.566125   -0.871671    0.476162
H       0.119844    0.836410    0.559226
H      -1.310333   -2.505116   -0.581741
H      -1.457476   -2.234183    1.151566
H      -3.642625   -1.283646   -0.021503
H      -2.880758    2.141586   -0.410426
