18

O      -0.057800    1.425837   -0.212028
C      -0.013457    0.027344   -0.058672
C       1.103408   -0.535091   -0.906951
C       2.488060   -0.006795   -0.473901
C       3.572649   -0.526248   -1.296243
C       4.447318   -0.972672   -1.989911
C      -0.333744   -0.589041    1.277256
C      -1.295008   -0.742775    0.105678
H      -0.629732    1.797971    0.465617
H       1.090274   -1.627621   -0.849675
H       0.927545   -0.265271   -1.954064
H       2.473616    1.087551   -0.517156
H       2.664130   -0.270146    0.577063
H       5.229732   -1.355827   -2.596366
H       0.227756   -1.457790    1.605118
H      -0.630264    0.071406    2.087259
H      -2.217343   -0.171452    0.137877
H      -1.391033   -1.716672   -0.362661
