21

C      -0.076231    1.440034   -0.202951
O      -0.049194    0.132617    0.325727
C      -1.249588   -0.573287    0.123134
C      -1.562206   -1.216336   -1.276393
C      -1.736407   -2.565408   -0.571041
C      -0.456153   -2.986454    0.119755
C       0.951025   -2.798344   -0.411342
C      -1.327667   -1.946681    0.773047
O      -1.917206   -2.147458    2.011595
H       0.882337    1.908554    0.033123
H      -0.210708    1.441693   -1.295081
H      -0.885040    2.039761    0.243427
H      -2.105026    0.033414    0.455988
H      -2.477421   -0.830086   -1.729537
H      -0.752505   -1.161942   -2.009392
H      -2.533735   -3.271919   -0.764680
H      -0.605218   -3.939499    0.626598
H       1.109639   -1.795777   -0.809492
H       1.684342   -2.945187    0.389335
H       1.170542   -3.528012   -1.199227
H      -1.218003   -2.196295    2.672278
