15

O      -0.034164    1.521321    0.012532
C       0.028762    0.101215    0.001801
C      -1.323954   -0.444002    0.011783
C      -2.431412   -0.910538    0.019803
C      -3.786961   -1.462052    0.029693
C      -3.829606   -2.922851    0.022461
C      -3.891224   -4.127942    0.016879
C      -3.917466   -5.568304    0.009950
O      -4.925750   -6.236124    0.016541
H       0.871129    1.848705    0.005782
H       0.557214   -0.270334   -0.891153
H       0.575315   -0.282903    0.878389
H      -4.334256   -1.099349    0.911349
H      -4.350777   -1.090222   -0.837634
H      -2.912593   -6.037331   -0.002313
