17

O       0.109240    1.432106   -0.002390
C       0.038599    0.022104   -0.032448
C      -1.395210   -0.421173    0.041568
C      -2.436123    0.401808   -0.002137
C      -3.836558   -0.123978    0.104456
C      -3.993556   -1.591340   -0.265529
O      -5.046147   -2.077909   -0.574832
O      -2.886626   -2.372972   -0.255082
C      -1.612611   -1.899632    0.194120
H       1.024661    1.690929   -0.139167
H       0.489742   -0.384945   -0.954879
H       0.600550   -0.427468    0.806810
H      -2.285540    1.470645   -0.098624
H      -4.220776   -0.007488    1.129173
H      -4.535154    0.430837   -0.528378
H      -0.877385   -2.466773   -0.388838
H      -1.483555   -2.203500    1.244119
