21

O      -0.420943    1.288813   -0.058206
C      -0.098517   -0.090589   -0.018066
C       0.662027   -0.481911   -1.279404
C       0.386193    0.149415   -2.572446
O       1.528647    0.541702   -1.791742
C       0.677859   -0.473899    1.244547
C       1.987987    0.286013    1.606669
C       1.551184    0.241759    3.095384
C       0.101189   -0.046862    2.622067
H       0.356394    1.725653   -0.434342
H      -1.056461   -0.629964   -0.010566
H       1.103712   -1.478747   -1.274184
H       0.621638   -0.379989   -3.493499
H      -0.401282    0.896044   -2.637452
H       0.860923   -1.555467    1.225862
H       2.939313   -0.174964    1.331649
H       1.972495    1.308873    1.220278
H       1.985853   -0.614786    3.619118
H       1.718254    1.137265    3.698433
H      -0.478264    0.873969    2.517911
H      -0.486998   -0.780474    3.179194
