18

O      -0.070099    0.082211   -0.710955
C      -0.077312    1.191385   -0.239736
C      -1.276779    2.071972   -0.017353
C      -1.572316    2.420437    1.436756
C      -0.772237    3.366147    0.584344
N       0.677609    3.322063    0.658464
C       1.341157    3.108988    1.979373
C       1.873831    1.725523    1.517437
C       1.155720    2.005749    0.167562
H      -2.099226    2.002031   -0.717931
H      -2.602259    2.679779    1.657771
H      -1.082311    1.852794    2.220011
H      -1.215258    4.317539    0.306044
H       2.112444    3.859074    2.178339
H       0.651973    3.089647    2.830147
H       2.958598    1.636596    1.447763
H       1.487040    0.865918    2.069070
H       1.822408    2.070091   -0.701245
