18

C       0.285389    1.507549   -0.220895
C       0.043061    0.041823    0.076033
O       0.667497   -0.832866   -0.900074
C       1.359782   -1.574032    0.121022
C       2.863524   -1.314780    0.134980
O       3.029685   -0.043313    0.753643
C       2.052154    0.040172    1.786129
C       0.803686   -0.653580    1.238481
H       1.355789    1.722268   -0.263812
H      -0.157953    1.765511   -1.187817
H      -0.180524    2.139398    0.543543
H      -1.036364   -0.160426    0.118011
H       1.095447   -2.636440    0.114068
H       3.373612   -2.103091    0.714302
H       3.294915   -1.267783   -0.867787
H       2.399629   -0.478462    2.694941
H       1.912943    1.097503    2.026681
H       0.178289   -1.095538    2.013799
