15

O       0.153578    1.311533    0.355728
C      -0.032842   -0.040714    0.028411
C      -1.498758   -0.433287   -0.205724
C      -1.430318   -1.352256   -1.419829
C      -0.216133   -1.328754   -2.016003
C       0.666057   -0.404657   -1.292219
O       1.728802    0.070066   -1.631744
C      -2.553392   -2.096261   -1.840430
C      -3.536243   -2.715673   -2.161217
H       1.008232    1.555317   -0.029310
H       0.394714   -0.699506    0.805286
H      -1.972368   -0.926165    0.647091
H      -2.087824    0.460379   -0.438974
H       0.062450   -1.852513   -2.920306
H      -4.394966   -3.267174   -2.456922
