14

N       0.010028    1.327728    0.146613
C       0.012179   -0.021927    0.041181
N      -1.190295   -0.623509    0.004080
C      -1.106543   -1.942741   -0.064325
O      -2.272507   -2.598568   -0.099864
N      -0.001455   -2.687987   -0.101697
C       1.130487   -1.962985   -0.069099
N       2.298958   -2.646967   -0.143253
N       1.205874   -0.629646    0.005311
H       0.876351    1.817997    0.011252
H      -0.862547    1.809201    0.017626
H      -2.045463   -3.537180   -0.152850
H       2.269879   -3.643143   -0.013822
H       3.147057   -2.148944    0.063768
