10

N      -0.018621    1.229828    0.379240
C      -0.012383    0.028434    0.019136
O       1.148744   -0.619264   -0.371255
C       1.069693   -1.913912   -0.745339
N       0.049372   -2.666649   -0.797762
O      -1.180069   -2.088629   -0.416246
C      -1.284245   -0.785946   -0.008469
O      -2.349958   -0.354832    0.300737
H       0.919086    1.634555    0.341186
H       2.027363   -2.330006   -1.032242
