14

C      -0.016576    1.455731   -0.002918
N       0.003757    0.006067   -0.010345
C       0.043049   -0.750984   -1.176796
N       0.065600   -0.258916   -2.337037
O       0.052263   -2.074451   -0.840790
C       0.018091   -2.210116    0.582150
C      -0.014579   -0.783159    1.117175
O      -0.048828   -0.418504    2.266488
H       0.877390    1.848560   -0.493013
H      -0.895391    1.823916   -0.537542
H      -0.047166    1.772300    1.040335
H       0.092969   -0.994498   -3.039984
H      -0.873809   -2.766305    0.886463
H       0.908053   -2.742425    0.931521
