17

C      -0.297371    1.511540    0.061131
C       0.001482    0.021124   -0.068694
C       1.327366   -0.289056   -0.843506
C       2.003582   -0.472703    0.522124
O       3.118327   -0.380676    0.942670
C       0.629330   -0.612019    1.212371
O       0.403798    0.077550    2.426533
C       1.086228   -0.350871    3.517464
O       0.979058    0.184146    4.577695
H       0.577910    2.066491    0.414512
H      -0.590258    1.922924   -0.909494
H      -1.107220    1.689286    0.772888
H      -0.873966   -0.518375   -0.433848
H       1.297818   -1.222490   -1.413992
H       1.738025    0.500315   -1.477112
H       0.356907   -1.672038    1.305169
H       1.725827   -1.226968    3.312024
