18

C      -0.048666    1.615126   -0.054915
C       1.456608    2.028353    0.000933
C       2.141673    0.765363    0.547735
C       1.517434    0.416775    1.934577
C       0.448117   -0.554996    1.398087
O       1.284084   -1.498658    0.659728
C       1.452721   -0.390559   -0.255620
C       0.012298    0.088249    0.039763
H      -0.627011    2.052726    0.765497
H      -0.524494    1.940460   -0.984281
H       1.824972    2.263937   -1.004526
H       1.637467    2.907951    0.625569
H       3.231209    0.783216    0.522233
H       2.204175   -0.112159    2.598260
H       1.117639    1.290354    2.457736
H      -0.248042   -1.025542    2.093124
H       1.838456   -0.663427   -1.237900
H      -0.774962   -0.478939   -0.455276
