18

C       0.248422    1.528008   -0.048298
C       0.090706    0.028838   -0.119268
O       0.929027   -0.520250   -1.105553
C       1.272861   -1.837401   -0.670053
C       2.673528   -2.173652   -1.163604
O       2.731545   -2.196084   -2.574131
C       1.145076   -1.742968    0.836454
N       1.584517   -2.584046    1.665072
O       0.492302   -0.581106    1.120893
H       1.290168    1.781008    0.162219
H      -0.043547    1.972373   -1.003276
H      -0.389874    1.935625    0.739210
H      -0.957443   -0.262019   -0.300472
H       0.556257   -2.570880   -1.070323
H       3.382928   -1.451733   -0.732299
H       2.943395   -3.169742   -0.804546
H       2.458723   -1.323722   -2.879647
H       1.372811   -2.304676    2.623867
