23

C      -0.023306    1.554984   -0.068299
C      -0.026791    0.025893   -0.013945
C      -1.437917   -0.571605    0.027864
O      -2.109675   -0.146201   -1.149124
C      -3.348827   -0.806527   -1.381231
C      -4.028417   -0.089409   -2.537548
C      -3.106399   -2.297791   -1.647867
C      -2.153069   -2.862294   -0.628460
C      -1.417125   -2.073695    0.150238
H       0.998571    1.943866   -0.111547
H      -0.564915    1.909713   -0.948213
H      -0.506458    1.982047    0.817962
H       0.491127   -0.387491   -0.887370
H       0.516783   -0.322381    0.872871
H      -1.960114   -0.151481    0.911257
H      -3.975164   -0.716882   -0.476439
H      -3.400436   -0.135680   -3.432916
H      -4.992989   -0.553391   -2.765593
H      -4.196252    0.962465   -2.291297
H      -4.061200   -2.838765   -1.616284
H      -2.710207   -2.435727   -2.664331
H      -2.091608   -3.943396   -0.533109
H      -0.760627   -2.488130    0.911270
