21

C       0.164108    1.543956    0.230479
O       1.412831    1.480332   -0.490408
C       1.342460    0.036838   -0.594901
C       2.479231   -0.674873    0.122265
C       2.250317   -2.193950    0.220835
C       1.289780   -2.610414    1.346000
C      -0.127693   -2.041363    1.249749
O      -0.160114   -0.620679    1.337562
C      -0.047062    0.029329    0.101523
H       0.293520    1.874731    1.267777
H      -0.570247    2.183927   -0.271423
H       1.310265   -0.271170   -1.649768
H       3.407020   -0.464908   -0.421987
H       2.593370   -0.246166    1.123812
H       1.881262   -2.574222   -0.742752
H       3.211689   -2.691535    0.389508
H       1.211167   -3.705216    1.374234
H       1.711906   -2.301983    2.310732
H      -0.617391   -2.372622    0.319794
H      -0.728638   -2.412924    2.086953
H      -0.870034   -0.266817   -0.564090
