15

C       0.083426    1.587413   -0.035639
C       0.033528    0.048964    0.057751
C       0.582959   -0.563280   -1.161979
N       1.011253   -1.029804   -2.128431
C       0.742210   -0.486499    1.277849
N       1.881040    0.019634    1.724373
N       2.136606   -0.763918    2.795906
C       1.164582   -1.684129    2.947392
N       0.258917   -1.537859    2.000283
H       1.117137    1.934207   -0.080136
H      -0.444449    1.931046   -0.927994
H      -0.390859    2.022547    0.847292
H      -1.007472   -0.282504    0.136158
H       2.963845   -0.604323    3.347888
H       1.156731   -2.416443    3.740373
