19

C      -0.003617    1.583542    0.043327
C       0.033248    0.043278    0.015763
C       0.714018   -0.498346   -1.260682
N      -0.037389   -0.113522   -2.452119
C       0.621431   -0.521856   -3.686745
C      -0.182085   -0.159094   -4.857698
N      -0.825532    0.105350   -5.779514
C       0.697140   -0.499055    1.199277
C       1.266478   -0.936470    2.163388
H       1.011957    1.987175    0.099251
H      -0.477912    1.959751   -0.865285
H      -0.558287    1.940884    0.914235
H      -1.004015   -0.324844    0.013733
H       1.719507   -0.066030   -1.336962
H       0.843633   -1.590115   -1.166822
H      -0.967949   -0.519457   -2.419723
H       1.587689   -0.007099   -3.757839
H       0.840245   -1.604009   -3.747489
H       1.757376   -1.324000    3.021583
