15

N      -0.026663    1.288656   -0.126088
C      -0.017462    0.028737   -0.085228
C      -1.235650   -0.868297   -0.057363
C      -0.667420   -2.230294   -0.513031
C       0.779090   -2.131085    0.026285
O       1.116008   -0.742935   -0.064869
C      -1.388925   -3.402136   -0.048757
C      -1.975935   -4.371573    0.351032
H       0.926901    1.655324   -0.117901
H      -1.616304   -0.938081    0.967244
H      -2.034165   -0.480480   -0.688682
H      -0.621991   -2.240801   -1.609001
H       0.828999   -2.458694    1.071413
H       1.501547   -2.699508   -0.562196
H      -2.499051   -5.228606    0.697111
