17

C      -1.068666    1.200135   -0.312602
C      -0.117772    0.013608   -0.375994
C       0.908637   -0.129428   -1.546897
C       2.035502   -0.514162   -0.533415
C       3.424248    0.098908   -0.641074
C       1.097025    0.008039    0.569072
O       1.279701    0.422380    1.678671
H      -0.528673    2.142933   -0.448021
H      -1.837777    1.135575   -1.088812
H      -1.568036    1.240872    0.660068
H      -0.669044   -0.926757   -0.245025
H       0.672532   -0.862182   -2.319810
H       1.110472    0.835655   -2.021643
H       2.104378   -1.606529   -0.447784
H       3.365775    1.188393   -0.732742
H       4.014525   -0.127429    0.251934
H       3.962675   -0.286137   -1.512875
