18

C       0.033131    1.598549   -0.153177
C      -0.078596    0.073271    0.016289
C       0.610001   -0.434411    1.247209
C       0.105801   -0.950676    2.387138
N      -1.186138   -1.226357    2.743255
C       1.245169   -1.313760    3.306274
O       2.421990   -0.948735    2.607984
C       2.071466   -0.427263    1.370513
O       2.906140   -0.053012    0.591083
H       1.084373    1.893742   -0.194114
H      -0.452638    1.923979   -1.078367
H      -0.437428    2.126042    0.683108
H      -1.133869   -0.227923    0.023244
H       0.370649   -0.410738   -0.859293
H      -1.916476   -0.777532    2.212624
H      -1.391423   -1.304395    3.727105
H       1.198594   -0.768878    4.259395
H       1.262888   -2.388583    3.528751
