21

C      -0.112468    1.507206    0.006059
C       0.054588    0.005900    0.003930
C       1.098049   -0.669184   -0.938910
C       1.292464   -1.710613    0.176569
C      -0.025615   -2.511647    0.534634
C      -0.079227   -1.773533    1.904160
C       0.778489   -0.690169    1.237698
C      -1.174956   -1.988403   -0.320534
O      -1.237221   -0.566576   -0.201117
H       0.845444    2.001515    0.191961
H      -0.502782    1.851550   -0.956794
H      -0.817732    1.808754    0.787038
H       0.756902   -0.974234   -1.932987
H       1.992858   -0.048000   -1.045664
H       2.225768   -2.266597    0.275165
H       0.023024   -3.602657    0.524566
H      -1.066597   -1.499725    2.288000
H       0.483318   -2.298545    2.681397
H       1.434033   -0.035939    1.816077
H      -1.051903   -2.283854   -1.373397
H      -2.139844   -2.375989    0.025328
