21

C       1.221732    0.991138   -0.885249
C       0.799712   -0.326592   -0.272168
C       1.806568   -1.349509    0.133300
N       0.993411   -0.669983    1.138860
C       1.612395    0.203012    2.079359
C       0.937062    1.336912    2.880469
N       2.342843    1.296786    3.503006
C       2.173617   -0.230805    3.450712
C       2.849722    1.170054    2.065183
H       2.242547    1.267200   -0.613698
H       1.175883    0.916998   -1.977107
H       0.553471    1.804747   -0.583048
H      -0.154479   -0.694069   -0.648353
H       1.617939   -2.412393    0.005517
H       2.853684   -1.060347    0.048627
H       0.716088    2.276208    2.365778
H       0.141522    1.064909    3.579128
H       1.467706   -0.619484    4.189240
H       3.122077   -0.774698    3.474907
H       3.850317    0.733991    1.994749
H       2.778377    2.103871    1.501864
