15

N      -0.040060    1.281402   -0.568267
C      -0.069029   -0.074615   -0.220478
C      -1.057157   -1.019918   -0.054097
C      -2.546657   -0.929311   -0.248052
C      -2.966170    0.204383   -1.071191
N      -3.276007    1.119363   -1.706460
N      -0.514749   -2.210243    0.390403
C       0.772421   -2.001221    0.484866
N       1.098197   -0.721361    0.129380
H       0.488102    1.452712   -1.418821
H      -0.973418    1.650220   -0.706078
H      -2.901222   -1.853944   -0.717648
H      -3.071394   -0.859067    0.714776
H       1.515627   -2.724032    0.784966
H       2.004200   -0.285716    0.179775
