16

C       0.212760    1.571827   -0.109055
O       1.530609    1.404352    0.483470
C       1.310235    0.005275    0.710644
C      -0.038675    0.058974   -0.073651
C       0.629045   -0.754721   -1.233083
N       1.067425    0.010050   -2.406740
C       2.319026    0.174995   -2.259428
O       2.963627   -0.348350   -1.183860
C       1.923317   -0.920554   -0.381023
H      -0.442534    2.148581    0.554673
H       0.258840    2.043551   -1.093692
H       1.436693   -0.283230    1.758221
H      -0.990703   -0.309890    0.303539
H       0.077614   -1.647435   -1.536288
H       2.967346    0.702781   -2.949841
H       2.233745   -1.909918   -0.040988
