20

C      -0.062434    1.563048    0.065825
C       0.008795    0.026072    0.004635
C       0.680616   -0.466037   -1.193575
C       1.236703   -0.840242   -2.193166
C       1.912764   -1.335504   -3.393347
C       1.982508   -2.890008   -3.427632
C       2.785185   -3.430994   -4.610541
C       1.263606   -0.815795   -4.610613
N       0.763789   -0.428708   -5.577650
H       0.939990    1.999248    0.063709
H      -0.605755    1.960964   -0.795130
H      -0.576285    1.882338    0.977104
H       0.529255   -0.355036    0.892482
H      -1.004947   -0.391846    0.046410
H       2.944775   -0.955350   -3.405714
H       2.429797   -3.205206   -2.479914
H       0.959688   -3.278577   -3.442147
H       2.343328   -3.127899   -5.564399
H       3.819376   -3.070116   -4.587913
H       2.813176   -4.523882   -4.584727
