23

C      -0.546980    1.636450    0.028817
O      -0.308919    0.284803    0.354786
C      -1.376886   -0.570539    0.046249
C      -1.458713   -1.213100   -1.381743
C      -0.191940   -1.124582   -2.227881
C      -1.707235   -2.588315   -0.690082
C      -1.292678   -1.976127    0.688178
C       0.089193   -2.381405    1.185389
O      -2.253186   -2.091926    1.727047
H       0.333667    2.205309    0.337556
H      -0.700859    1.784481   -1.050179
H      -1.428648    2.028276    0.558925
H      -2.334571   -0.111298    0.328989
H      -2.309380   -0.856088   -1.969075
H       0.696808   -1.444282   -1.676861
H      -0.283487   -1.760870   -3.114891
H      -0.009848   -0.100680   -2.569917
H      -2.758051   -2.885023   -0.684618
H      -1.099161   -3.422854   -1.051676
H       0.855705   -2.259329    0.417315
H       0.371920   -1.772611    2.047559
H       0.081633   -3.438072    1.483165
H      -2.142762   -2.954426    2.141658
