15

C      -0.002846    1.519917   -0.049538
C      -0.085143    0.050207    0.146256
C      -1.069361   -0.875864   -0.065501
N      -2.377971   -0.714167   -0.496542
C      -0.459395   -2.101562    0.347442
C      -1.043535   -3.441696    0.315434
O      -2.166801   -3.661857   -0.092483
N       0.780165   -1.918258    0.771505
O       1.017131   -0.583016    0.639240
H       0.529753    1.787918   -0.969983
H      -1.009772    1.942916   -0.103105
H       0.521938    1.992096    0.786155
H      -2.506438   -0.034395   -1.231899
H      -2.818068   -1.600810   -0.708750
H      -0.383355   -4.251326    0.681444
