14

N       0.015086    1.316270   -0.263351
C       0.032468   -0.055761   -0.037951
N      -1.104148   -0.675878    0.021696
O      -1.109453   -2.037975    0.139334
N       0.041039   -2.782384    0.334013
C       1.179477   -2.157204    0.343526
N       2.326352   -2.847129    0.604215
C       1.319750   -0.726968    0.068402
N       2.493418   -0.220645   -0.062293
H       0.621286    1.838056    0.358168
H      -0.926927    1.688052   -0.252654
H       2.286511   -3.850305    0.522456
H       3.169222   -2.382718    0.299279
H       2.446844    0.763787   -0.327255
