17

O      -0.073047   -0.037114    0.435471
C      -0.005795    1.117870    0.105553
C       1.293934    1.909461   -0.021891
C       1.466983    2.822999    1.232368
C       2.479542    2.034275    2.073121
O       3.362344    1.472726    1.120835
C       2.569574    1.011335    0.039152
C       1.276440    2.740931   -1.289296
O       0.421826    2.690074   -2.135426
H      -0.917514    1.715026   -0.096592
H       1.892887    3.787408    0.934996
H       0.521013    3.016396    1.746056
H       3.063287    2.658363    2.753944
H       1.970691    1.251492    2.657097
H       2.245390   -0.025882    0.188253
H       3.177950    1.069171   -0.868776
H       2.154795    3.419938   -1.387928
