19

C      -0.101096    1.476078    0.072110
C       0.069552   -0.013015    0.032413
C       0.934114   -0.780597   -1.002549
C       0.812770   -1.918475    0.017126
C      -0.715596   -1.985631    0.433815
C      -0.336180   -1.655322    1.898575
C       0.768215   -0.859636    1.189421
O       1.851340   -0.232034    1.781016
O      -1.183630   -0.721502   -0.056021
H       0.869730    1.962052    0.200269
H      -0.553439    1.836360   -0.857567
H      -0.749011    1.767946    0.903972
H       0.513878   -0.894298   -2.004732
H       1.959690   -0.405419   -1.043429
H       1.403949   -2.833016    0.026118
H      -1.384104   -2.797874    0.157465
H      -1.087373   -1.143284    2.505350
H       0.077497   -2.519643    2.429031
H       2.326976   -0.874800    2.317673
