21

C      -0.564355    1.370483    0.156513
C       0.154586    0.045366   -0.000275
C       0.910753   -0.217696   -1.322715
C       2.169953   -0.293562   -0.430690
O       1.392844   -0.004089    0.756174
C       2.881480   -1.626333   -0.330007
C       3.949425   -1.887550   -1.417014
O       5.020524   -1.737293   -0.465453
C       4.087975   -1.647605    0.634244
H       0.074605    2.200462   -0.161347
H      -1.479480    1.383186   -0.446136
H      -0.841615    1.532378    1.202853
H      -0.506935   -0.778235    0.301496
H       0.649714   -1.140280   -1.845458
H       0.891650    0.613798   -2.029743
H       2.908274    0.500492   -0.613179
H       2.155259   -2.429104   -0.180523
H       3.926886   -2.892789   -1.857774
H       4.009974   -1.148709   -2.227087
H       4.239935   -0.743818    1.235842
H       4.142957   -2.525933    1.289603
