12

C      -0.033879    1.444415    0.033498
N      -0.011840   -0.007829    0.065363
N      -0.036398   -0.718596   -1.068038
N      -0.008603   -1.987887   -0.756074
C       0.034276   -2.110083    0.589755
C       0.033181   -0.842550    1.144049
C       0.067491   -0.385632    2.478275
N       0.095753    0.005284    3.568207
H       0.865485    1.847314    0.505013
H      -0.068449    1.738269   -1.014688
H      -0.915830    1.821504    0.556471
H       0.063132   -3.066027    1.086153
