16

N      -0.104712   -1.182387   -0.258997
C      -0.050389   -0.033875   -0.136954
C       0.020973    1.405603    0.040957
C      -0.269079    2.022474    1.447593
C       0.533480    1.331322    2.580349
C       1.811999    2.046533    2.088380
O       2.354704    1.414560    0.901465
C       1.423412    2.098552    0.056931
C       0.943987    3.006116    1.222441
H      -0.606178    1.901037   -0.708091
H      -1.295366    2.326547    1.644899
H       0.226916    1.724634    3.554707
H       0.551398    0.239464    2.613657
H       2.594823    2.321435    2.796176
H       1.859951    2.400680   -0.895945
H       0.924240    4.091420    1.245036
