13

N       0.014813    1.251041    0.009170
C       1.120399    2.034000    0.002596
C       2.381736    1.479528   -0.012875
C       2.431672    0.083848   -0.021050
N       3.427942   -0.798171   -0.035730
C       2.751303   -1.992169   -0.035624
N       1.418415   -1.980590   -0.022393
C       1.155383   -0.647451   -0.012515
N      -0.034380   -0.082667    0.002311
H      -0.898324    1.681764    0.020532
H       0.928246    3.099075    0.010351
H       3.264658    2.105876   -0.018123
H       3.302175   -2.925969   -0.046173
