17

N      -0.078372   -1.165297   -0.209094
C      -0.054670   -0.016331   -0.088407
C      -0.020292    1.447902    0.023598
N      -0.568436    1.911369    1.317070
C       0.212034    3.100156    1.662825
C       1.680690    2.911453    1.973764
C       2.172028    1.615812    1.328587
C       1.412433    2.028589    0.025418
C       1.220888    3.452442    0.614800
H      -0.570082    1.857567   -0.838418
H      -1.552266    2.135759    1.231098
H      -0.316006    3.873529    2.206940
H       2.161726    3.447033    2.784078
H       3.252499    1.630556    1.170567
H       1.884818    0.668280    1.793635
H       1.934956    1.900973   -0.920230
H       1.367644    4.406107    0.125647
