21

C      -0.410753    1.368881    0.173878
C       0.036459   -0.059522    0.027678
O      -0.254391   -0.932819    1.134601
C       1.115727   -0.695491    0.788697
C       1.691314   -1.793851   -0.071794
O       0.744346   -1.992001   -1.111284
C      -0.057990   -0.809473   -1.309238
C      -1.474663   -1.286805   -1.621043
C       0.534803    0.019452   -2.457087
H       0.153284    2.035511   -0.484837
H      -1.473270    1.471555   -0.072418
H      -0.271867    1.698158    1.206253
H       1.721843   -0.178902    1.528999
H       2.676744   -1.485767   -0.459226
H       1.812146   -2.744307    0.459565
H      -1.867477   -1.852610   -0.773874
H      -2.138746   -0.440673   -1.825055
H      -1.466153   -1.934441   -2.502189
H       0.608006   -0.604395   -3.351929
H      -0.088542    0.887220   -2.693633
H       1.539744    0.377611   -2.210116
