18

C       0.083541    1.577806   -0.013236
C       0.083810    0.047967   -0.040373
C       0.889686   -0.540301   -1.207633
N       0.907182   -1.992574   -1.142133
C       1.145835   -2.696020    0.004241
O       1.179994   -3.908696    0.048104
C       1.386469   -1.811455    1.225265
C       0.544181   -0.541405    1.298408
O       0.255086   -0.034546    2.355007
H       1.105485    1.970356    0.025350
H      -0.404042    1.986924   -0.902932
H      -0.443810    1.931341    0.874280
H      -0.951220   -0.308941   -0.153853
H       0.435300   -0.245439   -2.156946
H       1.909848   -0.125333   -1.202902
H       0.803836   -2.541113   -1.982047
H       1.268571   -2.399314    2.135344
H       2.436548   -1.482246    1.186345
