25

C       0.951777   -0.372297   -1.001798
C      -0.011870    0.098674    0.095011
C      -0.109509    1.630087    0.121774
C      -1.428143   -0.546594   -0.021962
C      -2.085312   -0.129689   -1.262739
C      -2.603595    0.206573   -2.295423
C      -1.459684   -2.100240    0.120042
C      -0.725776   -2.585139    1.377901
C      -2.906615   -2.614517    0.125323
H       1.925433    0.115377   -0.889636
H       1.118619   -1.453174   -0.968111
H       0.562718   -0.123535   -1.994446
H       0.389136   -0.217601    1.064560
H      -0.503616    2.016303   -0.823230
H      -0.770225    1.973508    0.925376
H       0.876775    2.076059    0.285781
H      -2.020166   -0.145116    0.815338
H      -3.073870    0.508048   -3.198481
H      -0.957717   -2.522324   -0.759375
H      -1.132136   -2.110328    2.279382
H      -0.851119   -3.666603    1.492308
H       0.347674   -2.382394    1.345728
H      -3.448978   -2.243871    1.003980
H      -3.450027   -2.292260   -0.765977
H      -2.926910   -3.708410    0.161798
