14

C       0.005308    1.447838   -0.024613
N      -0.004294    0.005233    0.075751
N      -0.026952   -0.770355   -1.073786
N      -0.030602   -2.046368   -0.721851
C      -0.023067   -2.072450    0.610580
C      -0.007812   -0.820439    1.125433
O       0.066459   -0.792887    2.477915
C      -0.164751   -2.211537    2.792939
O       0.056230   -3.006421    1.619366
H       0.904045    1.861572    0.440757
H      -0.000864    1.689369   -1.087454
H      -0.879423    1.875208    0.455188
H       0.535908   -2.508103    3.574411
H      -1.208969   -2.310886    3.118138
