19

C       0.013346    1.362239   -0.358521
C       1.465912    1.508720    0.136522
C       1.242451    0.115408    0.762606
C       2.102414   -1.015547    0.199274
O       1.788319   -2.258616    0.804396
C       1.899885   -2.186038    2.199764
O       1.018615   -1.254100    2.765115
C       1.281966    0.055207    2.289290
O      -0.117565    0.064295    0.254913
H      -0.703367    2.083975    0.051146
H      -0.115628    1.316880   -1.446506
H       2.230954    1.548243   -0.642184
H       1.644318    2.314068    0.852636
H       1.925569   -1.129789   -0.872960
H       3.167451   -0.766627    0.358828
H       1.627807   -3.166203    2.595113
H       2.942665   -1.933176    2.479574
H       2.274396    0.398876    2.633809
H       0.516895    0.708661    2.715526
