16

N      -0.042621    1.363535   -0.015370
C       1.222736    1.819560   -0.025944
C       2.137645    0.757555   -0.016234
C       1.351363   -0.368236    0.000806
N       2.177024   -1.562079    0.012457
C       3.222272   -1.041907    1.031902
C       3.515647    0.089058   -0.013188
C       3.214380   -1.067495   -1.027577
N       0.065264    0.004356    0.001174
H       1.385850    2.887078   -0.039871
H       2.802140   -0.760657    1.999033
H       4.020568   -1.780851    1.146240
H       4.433384    0.674388   -0.023981
H       4.011853   -1.809120   -1.129636
H       2.786823   -0.810317   -1.998149
H      -0.770984   -0.554684    0.011401
