16

O       0.029920   -0.026508   -0.179413
C       0.026321    1.164315   -0.232333
O       1.018064    1.918877    0.289528
C       0.933448    3.342611    0.170361
C       1.049925    3.935984    1.571915
O       1.098648    5.364522    1.511440
C       1.794079    5.886942    0.468771
N       2.282512    5.308135   -0.542178
C       2.077104    3.871639   -0.694191
H      -0.770767    1.772115   -0.703048
H      -0.033549    3.625037   -0.265869
H       0.190139    3.678257    2.193744
H       1.958825    3.557508    2.054900
H       1.892373    6.962634    0.597630
H       2.999322    3.338877   -0.430776
H       1.887020    3.658753   -1.751705
