18

C       0.236520    1.626602   -0.161086
C       0.008826    0.111549    0.014602
C       0.372895   -0.639140   -1.243590
C       1.411259   -1.473685   -1.336677
C       2.360650   -1.650097   -0.212140
O       3.514914   -1.979318   -0.375972
N       1.832983   -1.399863    1.067497
C       2.071000   -0.120841    1.724565
C       0.701567   -0.494731    1.239856
H       1.288771    1.849550   -0.358802
H      -0.348179    2.011385   -1.002959
H      -0.066847    2.168135    0.739932
H      -1.069304   -0.027014    0.168081
H      -0.240879   -0.434018   -2.118881
H       1.687137   -1.954345   -2.268672
H       2.298555   -0.163708    2.786099
H       2.637409    0.621004    1.167911
H       0.011580   -0.843377    2.005898
