16

N      -0.165306    1.356183   -0.012622
C       0.041951    0.091401   -0.018014
C      -1.141918   -0.756776   -0.033646
N      -2.069796   -1.445394   -0.046040
N       1.217625   -0.618671   -0.011418
C       1.317852   -2.098870   -0.019024
C       2.846814   -2.381512   -0.006423
C       3.458495   -1.000067    0.006712
C       2.504949   -0.069078    0.003277
H       0.702300    1.890838   -0.001645
H       0.811645   -2.512227    0.856853
H       0.828141   -2.502004   -0.908942
H       3.139364   -2.968779    0.871138
H       3.155573   -2.959321   -0.884703
H       4.520039   -0.802626    0.017410
H       2.622759    1.004241    0.010298
