18

C      -0.022351    1.565658   -0.005595
C       0.088816    0.059557   -0.062018
O      -1.049863   -0.605694    0.423610
C       0.699445   -0.725499   -1.171422
C       1.926287   -0.025024   -1.781623
C       2.549019   -0.043121   -0.387185
N       3.686165    0.237284    0.099125
O       4.518324    0.811798   -0.885808
C       1.379825   -0.712423    0.233125
H       0.875512    2.061534   -0.379651
H      -0.883377    1.904150   -0.590704
H      -0.165939    1.894637    1.030959
H      -1.167194   -0.354079    1.346543
H       0.152415   -1.542252   -1.623500
H       2.489994   -0.670932   -2.460858
H       1.775496    0.943417   -2.266076
H       5.339444    0.944336   -0.400771
H       1.392830   -1.468928    1.007216
