20

C      -1.179713    0.260804    1.450105
C      -0.507201   -0.021687    0.105366
O       0.563627   -0.950617    0.201645
C      -1.438904   -0.420298   -1.061498
O      -0.742170   -0.221396   -2.286135
C      -1.913047   -1.890495   -1.085558
N      -2.726832   -2.363326    0.028156
C      -2.201477   -3.008717    1.091280
O      -1.006956   -3.145502    1.306794
H      -0.439848    0.675556    2.140518
H      -1.987390    0.991764    1.335945
H      -1.588899   -0.639652    1.910111
H      -0.042603    0.912428   -0.235228
H       0.216081   -1.754828    0.626017
H      -2.303933    0.254024   -1.084866
H       0.141025   -0.587383   -2.140193
H      -2.476689   -2.033507   -2.010517
H      -1.027323   -2.529126   -1.133896
H      -3.730591   -2.315535   -0.043766
H      -2.972369   -3.406958    1.775791
