17

C      -0.188717    1.622398   -0.056898
C      -0.033685    0.112363   -0.000632
C       1.191438   -0.557226   -0.640362
C       2.149422   -0.210944    0.537915
C       2.527297   -1.692429    0.625845
C       2.916466   -2.247792    1.915441
N       3.234453   -2.669118    2.944001
N       1.035474   -1.799241    0.283834
C       0.751545   -0.534995    1.149504
H       0.750627    2.137861    0.168062
H      -0.517352    1.943455   -1.050639
H      -0.937999    1.962608    0.665065
H      -0.970682   -0.409227   -0.224564
H       1.456903   -0.691321   -1.691121
H       2.783630    0.666988    0.683517
H       3.169937   -2.094077   -0.164080
H       0.499134   -0.641255    2.205196
