20

C      -0.002316    1.522324    0.007283
C      -0.161880    0.026595   -0.201936
O       0.951014   -0.443939   -0.945713
C       0.946465   -1.824263   -1.150184
C       0.155137   -2.406988   -2.336385
C       1.186032   -1.912495   -3.398101
C       1.300001   -3.341277   -3.915464
N       1.144857   -3.603741   -2.417435
C       1.994912   -2.332587   -2.132346
H       0.921393    1.736492    0.552246
H       0.039273    2.042062   -0.954134
H      -0.845365    1.919088    0.580679
H      -0.213629   -0.498150    0.766143
H      -1.099238   -0.191216   -0.738338
H       0.857758   -2.387088   -0.209120
H      -0.914861   -2.574618   -2.472395
H       1.208349   -0.954972   -3.924446
H       0.476519   -3.745205   -4.513989
H       2.263381   -3.674297   -4.316172
H       3.078192   -2.403391   -2.022549
