23

C      -0.376412    1.690942   -0.815710
C      -0.178856    0.303071   -0.193044
C      -1.480498   -0.464769    0.052357
C      -2.298904    0.146739    1.197024
C      -3.684586   -0.461815    1.428253
O      -2.301954   -0.550179   -1.171458
C      -2.342428   -1.973549   -1.063940
C      -0.983282   -2.571136   -1.226097
C      -1.405030   -2.001337    0.114937
H       0.590563    2.144278   -1.053880
H      -0.955000    1.611666   -1.740015
H      -0.902878    2.377214   -0.145742
H       0.461293   -0.290103   -0.853073
H       0.355772    0.386516    0.762139
H      -1.694590    0.065963    2.110873
H      -2.413616    1.217956    0.998311
H      -3.631017   -1.513116    1.725801
H      -4.207760    0.080142    2.221889
H      -4.286933   -0.395852    0.518793
H      -3.283614   -2.470699   -1.267814
H      -0.952239   -3.656432   -1.253702
H      -0.246069   -2.077058   -1.851630
H      -1.429489   -2.591008    1.021841
