18

O      -2.029628    0.512922    1.225255
C      -2.842299   -0.103315    0.233106
C      -2.998366   -1.599811    0.521977
C      -1.790883   -2.462000    0.197709
C      -0.454593   -2.133152    0.874632
C       0.226373   -0.989496    0.267194
N       0.758760   -0.082238   -0.212377
C      -2.003536   -3.851294   -0.238646
O      -1.651070   -2.832302   -1.177201
H      -1.261523    0.900857    0.795500
H      -3.836793    0.361765    0.253750
H      -2.432375    0.043983   -0.773124
H      -3.252256   -1.716007    1.583194
H      -3.841644   -1.986714   -0.060160
H      -0.612929   -1.914512    1.935054
H       0.214963   -2.995853    0.803308
H      -1.238126   -4.604462   -0.055299
H      -3.018853   -4.235569   -0.323331
