19

O      -0.134735    0.421094   -1.292628
C      -0.705104    0.644679   -0.010391
C      -1.849329   -0.314128    0.141605
C      -2.719476   -0.586342    1.401617
C      -3.239965   -1.573437    0.313174
C      -3.165888   -0.382597   -0.689630
C      -1.750831   -1.885956   -0.006855
C      -1.332929   -2.479340   -1.322417
O      -2.080698   -2.816956   -2.207927
H       0.597331    1.032635   -1.414451
H       0.030842    0.474276    0.792456
H      -1.074776    1.677612    0.093954
H      -2.211722   -1.020831    2.267869
H      -3.404697    0.213726    1.694890
H      -4.043718   -2.301368    0.412581
H      -3.872584    0.433632   -0.515384
H      -3.083149   -0.629868   -1.745559
H      -1.170241   -2.354570    0.798857
H      -0.232157   -2.608379   -1.426825
