15

C      -0.012110    1.519436    0.010297
C      -0.010829    0.010561    0.002190
C      -0.004175   -0.690703   -1.206496
C       0.026732   -2.077467   -1.191689
F       0.030379   -2.736788   -2.354241
C       0.048868   -2.809765   -0.013441
C       0.039567   -2.090325    1.172830
F       0.055789   -2.762181    2.328072
C       0.008902   -0.703766    1.203012
H       1.011917    1.911944    0.002719
H      -0.521698    1.922380   -0.869117
H      -0.505101    1.912889    0.903332
H      -0.024633   -0.172875   -2.158375
H       0.067779   -3.891427   -0.019426
H      -0.001181   -0.196303    2.160618
