20

C       0.129518    1.321459    0.070067
O      -0.182426   -0.033080   -0.149741
C       0.544053   -0.618444   -1.211507
C       2.031697   -0.976688   -0.860157
C       1.951286   -2.507100   -1.020029
C       1.153746   -2.637394   -2.350816
C       0.008694   -2.029835   -1.489313
C       0.609836   -2.840720   -0.304533
H       1.181082    1.467487    0.360740
H      -0.064659    1.933803   -0.825319
H      -0.509083    1.675506    0.883337
H       0.475100    0.028326   -2.099910
H       2.755789   -0.518960   -1.540692
H       2.275284   -0.672109    0.161976
H       2.861502   -3.078105   -0.833647
H       1.505151   -2.074764   -3.222196
H       0.954935   -3.674624   -2.629425
H      -1.040668   -2.100023   -1.774591
H       0.359058   -3.902506   -0.360453
H       0.448068   -2.458950    0.705678
