21

O       0.168653    1.329992    0.264419
C       0.048377   -0.035358   -0.087594
C      -1.401071   -0.553776   -0.055699
C      -1.443458   -2.084744   -0.150500
C      -2.885452   -2.601970   -0.197899
C      -3.735828   -1.958084    0.863722
C      -3.402449   -0.827320    1.487618
C      -2.150530   -0.046483    1.197000
O      -1.304218    0.011481    2.364001
H      -0.006471    1.366071    1.212949
H       0.448471   -0.135051   -1.102540
H       0.670633   -0.665275    0.566724
H      -1.936852   -0.138795   -0.920785
H      -0.883120   -2.428834   -1.027109
H      -0.937516   -2.514767    0.726043
H      -3.325410   -2.405909   -1.187404
H      -2.907222   -3.692326   -0.080275
H      -4.669893   -2.454563    1.117832
H      -4.043724   -0.418772    2.264803
H      -2.411695    1.003628    1.029559
H      -1.180787   -0.889659    2.681259
