17

C      -0.116215    1.569347    0.316960
C      -0.334163    0.090367    0.624393
C      -1.291149   -0.587034   -0.327667
O      -1.787101   -0.038241   -1.286792
C      -1.658155   -2.040329   -0.060938
C      -3.138946   -2.339308   -0.132821
N      -2.256128   -2.778055   -1.192091
C      -0.821715   -2.803366    0.833176
N      -0.144667   -3.380177    1.571839
H       0.593228    2.003763    1.025643
H       0.275871    1.704323   -0.693885
H      -1.054502    2.126318    0.381256
H       0.609766   -0.471327    0.593748
H      -0.708434   -0.063904    1.645759
H      -3.531664   -3.122934    0.507385
H      -3.784034   -1.482073   -0.303189
H      -2.304695   -2.106327   -1.961248
