19

C       0.078434    1.531232    0.071308
C      -0.180149    0.030997   -0.097181
C       0.645435   -0.569637   -1.223209
N       2.140824   -0.569917   -1.016626
C       2.200242   -1.993702   -1.372249
C       1.482054   -2.787825   -0.343024
C       0.661595   -2.101654   -1.429006
C      -0.194699   -2.812239   -2.312857
N      -0.895658   -3.374945   -3.044031
H       1.135377    1.715984    0.287113
H      -0.184822    2.085394   -0.836784
H      -0.511760    1.943393    0.894612
H       0.049820   -0.490718    0.838203
H      -1.240569   -0.151750   -0.312730
H       0.388195   -0.091824   -2.175602
H       2.598078    0.005649   -1.715015
H       2.938811   -2.401781   -2.051034
H       1.530920   -3.865573   -0.453113
H       1.435787   -2.422351    0.678024
