17

C      -0.084442    1.557514    0.057374
C       0.038865    0.033772   -0.013708
C       0.747712   -0.560774    1.208545
O       0.013015   -0.259710    2.403887
C      -0.317096   -1.411048    3.063665
N      -0.973900   -1.352425    4.146309
C       0.222592   -2.541218    2.281666
C       0.848115   -2.060552    1.208778
H       0.901945    2.032961    0.094882
H      -0.610694    1.947260   -0.818683
H      -0.636550    1.856759    0.951709
H      -0.952086   -0.427756   -0.093405
H       0.602779   -0.262336   -0.907384
H       1.742466   -0.098228    1.305463
H      -1.131698   -2.291887    4.506010
H       0.100753   -3.573686    2.578456
H       1.353794   -2.616653    0.429913
