19

O      -0.326571    0.116958    0.051925
C      -0.053359    1.276250    0.219278
C       1.320514    1.887777   -0.014016
O       2.341209    0.918190   -0.085781
C       2.709622    0.467455   -1.390663
C       2.530666    1.565809   -2.442783
C       2.758120    2.947837   -1.764179
C       1.292096    2.798555   -1.264599
C       1.025933    1.934063   -2.528549
H      -0.822236    2.015477    0.551003
H       1.548527    2.508770    0.866682
H       3.761983    0.173812   -1.308228
H       2.124786   -0.422245   -1.662975
H       3.068911    1.320904   -3.361179
H       3.549012    3.031895   -1.015158
H       2.849155    3.751903   -2.498059
H       0.685541    3.689862   -1.089474
H       0.800877    2.556901   -3.397890
H       0.296450    1.122369   -2.461694
