15

O       0.121987    1.370153   -0.240574
C       0.062473    0.027860   -0.082752
C      -0.336115   -0.856665   -1.213803
C      -1.198518   -1.071192   -0.001851
C      -0.402423   -1.882917    1.029447
C       0.573036   -0.685905    1.108750
O       1.235749   -0.245308    2.015498
C      -2.577011   -0.777018    0.067447
C      -3.751271   -0.518351    0.145818
H       0.276291    1.754964    0.634088
H      -0.809712   -0.300705   -2.017759
H       0.316360   -1.659703   -1.553054
H      -0.911390   -2.031325    1.983275
H      -0.001871   -2.834532    0.668259
H      -4.787831   -0.296741    0.206908
