17

C      -0.647005    1.336237   -0.083438
C       0.167780    0.050116    0.036438
C       1.117106   -0.225055   -1.162331
C       2.283253   -0.939155   -0.536725
C       2.271489   -0.828474    0.799047
C       1.086513   -0.012216    1.286257
C       3.256554   -1.352610    1.679330
N       4.039974   -1.768695    2.424895
H       0.008873    2.211569   -0.154088
H      -1.281369    1.321485   -0.975790
H      -1.298787    1.476567    0.784974
H      -0.523339   -0.798835    0.101373
H       0.637947   -0.805995   -1.957886
H       1.457734    0.711619   -1.629604
H       3.054200   -1.445668   -1.105327
H       1.420992    0.987816    1.595018
H       0.592525   -0.459468    2.153919
