17

C      -0.293393    1.518436   -0.127682
C       0.105268    0.047550   -0.003672
O      -1.031913   -0.777019    0.235954
C       0.770635   -0.476493   -1.282841
C       0.636019   -1.922044   -1.631785
N      -0.102766   -0.909075   -2.399554
C       1.975906    0.225675   -1.649725
C       2.994946    0.807878   -1.911600
H       0.582481    2.140682   -0.325492
H      -1.008079    1.654604   -0.945328
H      -0.755275    1.870432    0.802106
H       0.829960   -0.063495    0.817848
H      -1.583336   -0.341306    0.891873
H       1.445390   -2.403807   -2.171187
H       0.084992   -2.547765   -0.938180
H      -1.058153   -0.889718   -2.043927
H       3.891352    1.318630   -2.162858
