23

C       0.065579    1.624019    0.117991
C      -0.044589    0.103622   -0.028001
C       0.683797   -0.463852   -1.265796
C       2.245715   -0.470900   -1.088511
C       2.172668   -1.954413   -0.650619
C       0.761280   -2.046398   -1.286709
C      -0.319917   -2.883352   -0.621828
C       0.177973    0.133467   -2.490989
C      -0.239685    0.603600   -3.517611
H       1.108393    1.946844    0.203726
H      -0.370240    2.132449   -0.746432
H      -0.460615    1.964090    1.015220
H       0.362570   -0.379958    0.867935
H      -1.101768   -0.180185   -0.082071
H       2.755085   -0.344510   -2.045820
H       2.653530    0.249774   -0.375923
H       2.938108   -2.630542   -1.037914
H       2.139221   -2.063352    0.437845
H       0.860992   -2.351228   -2.333158
H      -0.450944   -2.623360    0.433097
H      -1.286054   -2.759442   -1.123242
H      -0.057453   -3.946181   -0.668891
H      -0.603743    1.022608   -4.422698
