14

O      -0.658979    0.741649    0.584702
C       0.260017    0.922327   -0.173498
C       1.271131    1.983762    0.036552
C       1.402318    3.005914    1.166253
C       1.952799    4.042136    0.127911
C       1.805569    2.971569   -0.968413
O       2.552427    1.827219   -0.583053
C       1.497839    3.152841   -2.353259
N       1.244670    3.343785   -3.465384
H       0.419002    0.319588   -1.090976
H       0.433639    3.288302    1.579106
H       2.077055    2.706291    1.969051
H       1.283437    4.890026   -0.021905
H       2.976536    4.393338    0.265419
