14

N       0.017420    1.362594    0.146345
C      -0.047625   -0.010226    0.053722
C      -1.172545   -0.751381    0.029571
O      -1.146805   -2.132131   -0.007616
C       0.031123   -2.758024   -0.015020
O      -0.095622   -4.089895   -0.042425
C       1.227611   -2.122868   -0.002440
C       1.282647   -0.684854    0.017304
O       2.307480   -0.007173   -0.005730
H       0.953267    1.687831   -0.070846
H      -0.727491    1.898871   -0.268995
H      -2.189170   -0.386618    0.041269
H      -1.037156   -4.305546   -0.048323
H       2.141093   -2.700348   -0.023545
