20

C      -0.123781    1.497572    0.072923
C       0.006617    0.007975    0.014038
C      -0.060229   -0.797050   -1.059300
C       0.180728   -2.251943   -0.725080
C       0.103338   -2.260844    0.820090
C       0.318503   -0.792743    1.258690
N      -0.282911   -0.359778   -2.372475
C      -0.317805   -1.100265   -3.523979
O      -0.159379   -2.295995   -3.624141
H      -0.327831    1.960274   -0.898706
H      -0.934229    1.798035    0.749660
H       0.793206    1.959272    0.462792
H      -0.544383   -2.917150   -1.196436
H       1.162105   -2.568975   -1.099127
H      -0.892751   -2.590883    1.130700
H       0.824235   -2.947424    1.270440
H       1.353000   -0.607900    1.586857
H      -0.319312   -0.513251    2.106918
H      -0.425537    0.631588   -2.495253
H      -0.516439   -0.445670   -4.396410
