19

C      -0.010360    1.525737    0.026532
C       1.442484    1.955463   -0.053179
C       2.413189    1.283621    0.909362
C       1.961399    0.600777    2.195641
C       1.187017   -0.708379    2.008797
O      -0.037562   -0.584102    1.299694
C       0.059477   -0.020757    0.006480
O       1.277973   -0.352070   -0.632291
C       2.183827    0.719031   -0.475488
H      -0.541898    1.861652    0.920012
H      -0.553417    1.888771   -0.852224
H       1.680560    2.936021   -0.448068
H       3.354730    1.818728    1.004399
H       2.849364    0.358703    2.792265
H       1.364359    1.297496    2.798028
H       1.832814   -1.444626    1.514734
H       0.903679   -1.109071    2.986405
H      -0.752626   -0.478205   -0.564976
H       2.972664    0.687738   -1.217145
