16

C       0.102173    1.485817   -0.053095
C       0.030624    0.002681    0.111731
C      -1.288331   -0.810450    0.267176
C      -0.401231   -1.908459    0.845715
C       0.677817   -0.915950    1.229921
C       0.914077   -1.776514    0.027765
O       0.738055   -0.747124   -0.935569
C       1.824857   -2.848062   -0.197902
N       2.560053   -3.726258   -0.361229
H       1.141454    1.824496   -0.071418
H      -0.372732    1.779276   -0.995255
H      -0.419212    1.987834    0.767074
H      -1.935235   -0.384430    1.038177
H      -1.848748   -1.003589   -0.651594
H      -0.671174   -2.832502    1.339041
H       1.256186   -0.745020    2.126859
