18

C      -0.043813    1.336540   -0.027008
O       0.054890   -0.094359    0.043341
C       0.669367   -0.578499    1.128900
O       1.126538    0.101475    2.016214
C       0.714441   -2.092329    1.094090
N       1.381523   -2.570871    2.277546
C       1.541325   -3.902698    2.511321
C       2.255781   -4.256718    3.805593
O       1.135012   -4.746585    1.731022
H       0.950503    1.789333   -0.028514
H      -0.563593    1.549921   -0.960380
H      -0.608291    1.723746    0.824534
H      -0.307686   -2.483427    1.018103
H       1.225290   -2.417097    0.179045
H       1.707219   -1.863882    2.918620
H       3.129724   -4.868805    3.568217
H       2.575119   -3.385338    4.382634
H       1.588197   -4.866542    4.420233
