25

C      -1.121194    1.310040   -0.449332
C      -0.744573   -0.174327   -0.485444
C       0.474588   -0.498964   -1.371474
C       1.776183    0.109058   -0.827135
C       0.624329   -2.010712   -1.503438
O      -0.587994   -2.672779   -1.943792
C       0.152566   -3.510050   -2.851618
C       1.433354   -2.668170   -2.664502
C       1.805187   -1.809576   -3.868465
H      -0.329651    1.927666   -0.013387
H      -1.322324    1.690879   -1.457192
H      -2.024313    1.467201    0.148824
H      -0.547142   -0.529527    0.535810
H      -1.594951   -0.755968   -0.854696
H       0.280099   -0.084930   -2.369707
H       2.639323   -0.160006   -1.444090
H       1.725767    1.200530   -0.794748
H       1.974058   -0.245425    0.191601
H       0.933493   -2.419296   -0.526525
H       0.222477   -4.544879   -2.489051
H      -0.286208   -3.514143   -3.857124
H       2.304160   -3.235178   -2.325469
H       0.941969   -1.253397   -4.247215
H       2.596039   -1.090157   -3.634967
H       2.169543   -2.445537   -4.682819
