14

C      -0.009722    1.550593   -0.003893
O       1.389555    1.899214    0.032736
C       2.064296    0.635763    0.024300
O       1.242131   -0.208020   -0.744723
C       0.049250    0.001372    0.019649
C       0.504294   -0.357896    1.443952
O       1.564908   -1.307713    1.496606
C       1.902296    0.079708    1.451567
H      -0.528227    1.979951    0.860032
H      -0.457586    1.929967   -0.927740
H       3.056644    0.737657   -0.410416
H      -0.789307   -0.537298   -0.416384
H      -0.165564   -0.298316    2.295268
H       2.417727    0.510847    2.302079
