18

N      -0.156185   -1.158695   -0.095192
C      -0.124392   -0.003662   -0.047249
C      -0.071411    1.455612    0.016397
C      -0.534996    1.976778    1.433990
C       0.773209    2.149771    2.199175
C       1.780904    2.236785    1.339891
C       3.231659    1.892398    1.091202
C       2.712435    1.168634   -0.209071
C       1.385584    1.999104   -0.090983
H      -0.715721    1.843092   -0.778491
H      -1.088731    2.918114    1.321140
H      -1.212119    1.268448    1.919620
H       0.824199    2.116332    3.280648
H       3.850078    2.761609    0.844237
H       3.747332    1.293975    1.845034
H       3.299135    1.306315   -1.119466
H       2.542579    0.104070   -0.037847
H       1.420363    2.887889   -0.730500
