15

C       0.308875    0.890980   -0.131074
O      -0.182560   -0.251751    0.572197
C      -1.369532   -0.733802    0.155298
N      -2.022716   -0.198671   -0.793341
N      -1.698871   -1.818399    0.960623
C      -2.772349   -2.713041    0.607498
C      -2.506436   -3.568825   -0.568519
N      -2.281859   -4.244660   -1.478006
H       1.271700    1.121786    0.326304
H       0.429582    0.668281   -1.194097
H      -0.378314    1.734341   -0.027168
H      -2.880601   -0.691539   -1.018681
H      -0.908199   -2.230615    1.433479
H      -2.985017   -3.360613    1.463168
H      -3.685458   -2.137444    0.421566
