19

C       0.028618    1.540450    0.091757
N       0.065420    0.100001    0.181998
C      -1.189761   -0.665567    0.318394
C      -0.469255   -1.622819    1.288146
C       0.543443   -2.606044    0.629939
C       1.722718   -1.630274    0.981215
C       2.692451   -1.300813   -0.048250
N       3.465988   -1.034096   -0.865349
C       0.661409   -0.550567    1.356888
H       1.048957    1.934980    0.063353
H      -0.467383    1.836512   -0.838367
H      -0.508236    2.020287    0.932014
H      -1.991415   -0.100179    0.821672
H      -1.583127   -1.078878   -0.618351
H      -1.010456   -1.985479    2.159261
H       0.627632   -3.587686    1.098488
H       0.392440   -2.736680   -0.442805
H       2.251912   -1.973893    1.875719
H       0.865947    0.093641    2.218376
