21

C      -0.188792    1.575258   -0.044846
C       0.037431    0.064671   -0.008823
C       0.795955   -0.524473   -1.240037
C       1.892612   -1.329926   -0.522990
O       2.888825   -0.420441   -0.050636
C       2.308898    0.149899    1.131233
C       0.906317   -0.496117    1.160078
C       0.242814   -0.600611    2.511651
O       1.252239   -1.803415    0.642464
H       0.740897    2.125711   -0.220414
H      -0.878116    1.838326   -0.853522
H      -0.628262    1.941500    0.889669
H      -0.936335   -0.428862    0.077966
H       0.156743   -1.169514   -1.848600
H       1.231833    0.242891   -1.884246
H       2.370790   -2.142035   -1.070396
H       2.895900   -0.140581    2.011449
H       2.294710    1.241582    1.059147
H       0.005442    0.393981    2.902052
H      -0.687990   -1.170550    2.439473
H       0.900295   -1.101753    3.227606
