18

O       0.002166    0.046997   -0.054722
C       0.016342    1.247181    0.013861
N      -0.980087    2.203359    0.104469
C      -0.069700    3.339757    0.050733
C      -0.262319    4.598431   -0.730608
C      -0.214751    4.625688    0.794005
C       1.077812    2.337318    0.022854
C       2.389378    2.318686    0.749311
C       2.359030    2.335008   -0.756700
H      -1.974935    2.138068   -0.050051
H       0.582872    4.998281   -1.282084
H      -1.222384    4.765080   -1.208600
H      -1.142863    4.808589    1.325588
H       0.663730    5.044703    1.274717
H       2.690412    3.225007    1.264845
H       2.662438    1.396630    1.251233
H       2.607749    1.422912   -1.288718
H       2.640661    3.251508   -1.265185
