22

C      -0.575206    1.241341    0.099016
C      -0.074957   -0.198949    0.249181
C       1.079899   -0.363639    1.243094
O       2.215942    0.392252    0.868161
C       0.647651   -0.243915    2.749568
C       0.724213   -1.772191    2.836032
C       0.788895   -2.642309    4.024543
N      -0.403858   -2.654432    3.145388
C       1.460623   -1.848012    1.496454
H       0.201298    1.898909   -0.308879
H      -1.423396    1.289740   -0.589847
H      -0.904336    1.660429    1.056488
H      -0.900751   -0.846565    0.567242
H       0.262701   -0.574759   -0.724373
H       1.959141    1.318937    0.815718
H       1.421679    0.255457    3.339350
H      -0.323140    0.216606    2.961230
H       1.378382   -3.555477    4.002949
H       0.709427   -2.179594    5.005696
H      -1.150393   -2.118706    3.583706
H       1.088576   -2.583414    0.779394
H       2.542634   -1.953136    1.610230
