23

C       0.245287    1.544487    0.048248
C       0.038770    0.057730    0.372189
C       0.477720   -0.239226    1.814298
C      -1.434273   -0.335667    0.104488
O      -1.835792   -0.001698   -1.217882
C      -1.777992   -1.813519    0.404333
C      -3.299946   -2.071911    0.320203
C      -1.095373   -2.786820   -0.532875
O      -0.569635   -2.501644   -1.584945
H       1.302175    1.817047    0.131422
H      -0.099059    1.775783   -0.961202
H      -0.317004    2.176082    0.747307
H       0.667267   -0.530116   -0.309411
H       0.507709   -1.309551    2.038984
H       1.482459    0.155675    1.994806
H      -0.194945    0.237819    2.538074
H      -2.064144    0.282617    0.760118
H      -1.330560   -0.587505   -1.799234
H      -1.455019   -2.078910    1.418880
H      -3.682167   -1.720237   -0.640527
H      -3.538334   -3.134904    0.430463
H      -3.814970   -1.528192    1.117054
H      -1.136144   -3.850357   -0.204427
