19

C       0.047850    1.492163    0.010762
C       0.032473    0.037481    0.006117
C       0.022395   -1.169729    0.002376
C      -0.017176   -2.578648   -0.004111
C       0.703874   -3.644273    0.816099
C      -0.612150   -4.329349    1.172985
C      -1.194252   -3.656475   -0.098051
C      -0.422807   -4.323439   -1.267310
C       0.822160   -3.640583   -0.708402
H       0.659537    1.891461   -0.806612
H      -0.963756    1.896700   -0.109389
H       0.450229    1.888954    0.950111
H       1.572104   -3.488305    1.443175
H      -0.641893   -5.424510    1.217891
H      -1.040180   -3.910196    2.087303
H      -2.254450   -3.428958   -0.179759
H      -0.444859   -5.418360   -1.321539
H      -0.704834   -3.899727   -2.234680
H       1.776669   -3.481930   -1.193290
