14

O       0.002465    1.396730   -0.003028
C      -0.071689    0.023833    0.010966
C      -0.497706   -0.753040    1.189158
O      -1.491367    0.022146    1.901887
C      -2.392916   -0.112658    0.828519
N      -3.595001    0.209387    0.742835
C      -1.407711   -0.800834   -0.062247
C      -1.653151   -1.796090   -1.039417
C      -1.841236   -2.637047   -1.878475
H      -0.450961    1.723626    0.785434
H       0.690779   -0.429352   -0.614912
H       0.005503   -1.540299    1.735270
H      -3.934329    0.649453    1.599022
H      -2.022361   -3.378475   -2.616834
