20

C      -0.148439    1.570579    0.039933
C       0.019872    0.079372    0.215471
N       1.166204   -0.720601   -0.284500
C       2.412851    0.069586   -0.008994
C       2.153082    0.037364    1.529343
C       2.184023    1.291805    2.358964
O       1.253040    1.728512    2.988862
C       0.827522   -0.655293    1.215158
C       0.313250   -1.829554    1.994347
H       0.738223    2.154833    0.286128
H      -0.425099    1.795186   -0.996165
H      -0.952931    1.925717    0.690954
H      -0.896209   -0.457656   -0.028993
H       3.289301   -0.502996   -0.314775
H       2.449224    1.050911   -0.491206
H       2.864725   -0.659277    1.991646
H       3.171405    1.812208    2.363493
H      -0.079350   -1.497959    2.962520
H      -0.491843   -2.335983    1.454763
H       1.107291   -2.560785    2.183390
