18

N      -0.054044   -1.047570   -0.051100
C      -0.007834    0.107514   -0.003351
C       0.043457    1.543251    0.051841
C       0.579544    2.150510    1.337017
C       1.427652    2.168903    0.071227
C       1.356699    3.712764    0.025440
C       0.197801    4.412783   -0.745889
C      -0.674037    4.393928    0.555446
C       0.489518    3.693963    1.319782
H      -0.769958    2.017936   -0.486287
H       0.675779    1.531646    2.220475
H       2.289528    1.566653   -0.188023
H       2.334855    4.192718    0.009539
H       0.455814    5.421595   -1.075140
H      -0.200571    3.870886   -1.607680
H      -0.893821    5.392403    0.939403
H      -1.615250    3.840307    0.503891
H       0.840540    4.160309    2.239947
