18

C       0.067552    1.490027   -0.067588
C      -0.058884    0.000403    0.091969
C      -1.302562   -0.732593   -0.403145
C      -1.235341   -2.143995    0.237003
C      -0.290328   -1.986482    1.410639
N      -0.183952   -2.681003    2.472441
O      -1.092692   -3.750843    2.478521
C       0.537756   -0.775940    1.198098
O       1.132756   -0.769249   -0.120903
H       1.009981    1.844077    0.357041
H       0.047313    1.765393   -1.127898
H      -0.760039    2.006845    0.429200
H      -2.194377   -0.194517   -0.062411
H      -1.338939   -0.766626   -1.496242
H      -2.207206   -2.518573    0.563703
H      -0.827068   -2.880021   -0.462458
H      -0.919737   -4.159745    3.333287
H       1.133798   -0.352014    1.999358
