17

C       0.058013    1.542084    0.009401
C      -0.046989    0.019848    0.002694
C      -1.474817   -0.477911    0.013312
O      -2.447790    0.236523    0.026313
C      -1.643164   -2.019632    0.006643
O      -0.666990   -2.741916   -0.006514
C      -2.998281   -2.500479    0.017024
C      -4.131802   -2.916030    0.025661
C      -5.496463   -3.408525    0.036231
H       1.105741    1.854017    0.001426
H      -0.437628    1.973717   -0.864228
H      -0.421604    1.964860    0.896205
H       0.451361   -0.423823   -0.868979
H       0.467173   -0.432474    0.860645
H      -5.529535   -4.502572    0.030236
H      -6.026303   -3.053599    0.926919
H      -6.043682   -3.043375   -0.839692
