16

C      -0.132825    1.466598    0.021686
C      -0.018198    0.017497    0.004923
C       0.084268   -1.184926   -0.011088
C       0.193300   -2.590902   -0.027741
C       1.297190   -3.432989   -0.069492
C       0.755947   -4.738181   -0.070489
N       1.448702   -5.944400   -0.173430
N      -0.576485   -4.722102   -0.027147
N      -0.894933   -3.409213   -0.012416
H       0.856355    1.937009    0.008658
H      -0.686268    1.833961   -0.849919
H      -0.654807    1.816414    0.919527
H       2.331535   -3.134668   -0.107632
H       2.303638   -5.961237    0.365765
H       0.860145   -6.730597    0.071265
H      -1.860119   -3.131169    0.020475
