17

C      -0.308270    1.306481   -0.067651
O       0.216409   -0.006436   -0.205905
C       0.743653   -0.509858    0.946996
C       1.058533   -1.905511    1.276335
C       2.599879   -1.998676    1.313268
N       2.949873   -0.734499    2.020624
C       1.914240   -0.003757    1.906758
N       1.065144    0.122060    3.109805
C       0.244273   -0.907869    2.278458
H       0.469263    2.014547    0.251433
H      -0.681840    1.604499   -1.048784
H      -1.134920    1.332739    0.655357
H       0.439330   -2.717740    0.901078
H       2.990070   -2.803751    1.943258
H       3.016303   -2.127801    0.302924
H       0.477209    0.961587    3.060895
H      -0.733763   -1.203708    2.645578
