14

C      -0.153521   -1.233416    0.263439
C      -0.085228   -0.034417    0.192652
C      -0.023476    1.395680    0.067682
C       0.725475    2.208176    1.083203
N       1.237082    2.091211   -0.273660
C       2.423807    1.258669   -0.459472
C       3.636224    2.046336   -0.219126
N       4.599474    2.650593   -0.017605
H      -0.219376   -2.291153    0.337532
H      -0.889290    1.846661   -0.410524
H       0.357580    3.189960    1.364819
H       1.228187    1.654666    1.873518
H       2.448161    0.372140    0.192791
H       2.436430    0.896767   -1.493332
