16

C      -0.271042    1.339864    0.113737
C       1.173264    0.878057   -0.042581
C       0.047971   -0.103580   -0.043443
O      -0.125034   -1.063664    1.016092
C      -0.488977   -2.085386    0.068525
C      -1.988647   -2.106129   -0.268481
O      -1.800079   -1.141407   -1.337970
C      -0.379568   -1.097243   -1.111147
H      -0.581373    1.666186    1.100401
H      -0.755567    1.852377   -0.710367
H       1.688332    1.076258   -0.977263
H       1.802791    0.901500    0.840408
H       0.054124   -3.019070    0.216107
H      -2.365256   -3.059146   -0.660434
H      -2.644622   -1.738078    0.527131
H       0.206549   -1.192232   -2.026720
