16

C       0.098002    1.599553    0.183774
C       1.307491    0.734181   -0.128794
C      -0.029429    0.115143    0.106119
C      -0.512849   -0.938054    1.151653
C      -1.263736   -1.561929   -0.026541
C      -2.050435   -2.377516   -0.810156
N      -2.011173   -1.863986   -2.080352
N      -1.255172   -0.786411   -2.137543
N      -0.816973   -0.628852   -0.881154
H       0.029975    2.060891    1.163132
H      -0.331364    2.180617   -0.624621
H       1.684111    0.738592   -1.145469
H       2.064441    0.605265    0.637373
H       0.280764   -1.553096    1.581028
H      -1.141556   -0.535389    1.948552
H      -2.623616   -3.260226   -0.583370
