17

C      -0.045228    1.563064    0.022074
C       0.069490    0.055930    0.052176
O      -1.098185   -0.592882   -0.404118
C       1.324871   -0.727943   -0.249818
C       2.581980   -0.059216    0.317216
C       1.932989   -0.076272    1.742170
C       0.687151   -0.748353    1.156584
H       0.840921    2.060856    0.421653
H      -0.183853    1.917036   -1.007449
H      -0.912975    1.884459    0.606941
H      -1.181187   -0.413213   -1.347275
H       1.303908   -1.501238   -1.009301
H       3.461037   -0.705269    0.263130
H       2.850775    0.916751   -0.100299
H       2.475051   -0.730753    2.427935
H       1.783960    0.888470    2.237743
H       0.107280   -1.534045    1.625351
