16

C      -0.022424    1.529321   -0.111833
C      -0.042057    0.023490    0.056095
O       1.218040   -0.655477   -0.112274
C       0.651285   -0.659124    1.198340
C       1.407099    0.067686    2.291228
C       0.130797   -1.951217    1.628842
N      -0.261849   -2.961767    2.028272
C      -1.179689   -0.626882   -0.552403
C      -2.144378   -1.123660   -1.067412
H       0.877885    1.971315    0.314611
H      -0.052393    1.770863   -1.177905
H      -0.903110    1.973599    0.360351
H       1.803260    1.016704    1.931731
H       0.753693    0.250575    3.149032
H       2.244903   -0.549816    2.627495
H      -2.990143   -1.587330   -1.513236
