14

O       0.071621    1.313715    0.159285
C       0.055490   -0.021366    0.012928
C       0.028050   -0.792449   -1.146598
O      -0.032755   -0.202081   -2.386436
C       0.011911   -2.141232   -0.752642
C       0.036157   -2.163032    0.641137
N       0.052246   -0.846985    1.078525
C       0.041169   -3.236079    1.593388
O       0.056320   -3.071615    2.804052
H       0.077049    1.694096   -0.728764
H       0.569000   -0.655793   -2.984899
H      -0.014491   -3.009722   -1.393778
H       0.066228   -0.594115    2.053919
H       0.030085   -4.250924    1.142833
