21

C       0.081335    1.489396    0.064693
C       0.004229   -0.010074   -0.006574
C      -0.059614   -0.687496   -1.156267
C      -0.169204   -2.186919   -1.192578
O      -0.779851   -2.738697   -0.032382
C      -0.390145   -2.217817    1.208236
C      -1.247348   -2.830601    2.286302
C       1.039142   -1.859389    1.500954
C      -0.007951   -0.755997    1.279934
H       0.983240    1.813085    0.599401
H       0.092099    1.939729   -0.931489
H      -0.772949    1.902297    0.616479
H      -0.033046   -0.169981   -2.111089
H      -0.803067   -2.504928   -2.027697
H       0.818278   -2.653094   -1.357577
H      -1.107537   -3.916063    2.315635
H      -0.988877   -2.422152    3.266752
H      -2.305122   -2.629124    2.090944
H       1.407252   -2.020891    2.508726
H       1.788101   -1.975189    0.725917
H      -0.319479   -0.193994    2.155700
