19

C       0.054726    1.546780    0.060809
O       1.188773    0.656735   -0.018650
C      -0.112678    0.098577    0.004144
C      -0.546479   -0.960675    1.023623
C      -2.075569   -0.933521    0.800256
C      -2.007716   -1.418440   -0.669495
C      -1.400709   -2.835754   -0.488936
C      -0.146813   -2.055730   -0.068991
C      -0.553611   -0.897869   -1.051390
H      -0.052248    2.073511    1.008689
H      -0.118062    2.154139   -0.826925
H      -0.152786   -0.972412    2.038438
H      -2.633875   -1.625779    1.436783
H      -2.494583    0.069531    0.922879
H      -2.870835   -1.239137   -1.309714
H      -1.887164   -3.516570    0.217518
H      -1.237862   -3.347201   -1.442149
H       0.857331   -2.471544   -0.020982
H      -0.260186   -0.854022   -2.098342
