15

N      -0.027426    1.347994    0.176808
C      -0.077698   -0.001900    0.062870
N      -1.130327   -0.727214    0.021247
C      -0.715249   -2.125473   -0.076008
C       0.832402   -2.148234    0.088388
N       1.153864   -0.716334    0.029393
C       2.406947   -0.201080   -0.094674
O       2.688737    0.981948   -0.173081
H       0.859359    1.788794   -0.026945
H      -0.885884    1.836518   -0.014197
H      -1.203948   -2.728559    0.696199
H      -1.019358   -2.543101   -1.044446
H       1.138383   -2.569194    1.051917
H       1.343367   -2.696376   -0.707119
H       3.177848   -0.992696   -0.123020
