24

C      -2.175822    1.515672    0.356605
C      -2.008362    0.004076    0.529294
C      -2.277269   -0.780392   -0.764099
C      -2.033261   -2.265893   -0.578822
C      -3.072704   -3.209261   -0.054580
C      -4.467412   -2.758255    0.314694
O      -4.418340   -2.340045    1.675795
N      -2.594986   -3.315310   -1.433108
C      -3.455800   -2.993491   -2.561619
H      -1.980349    2.047639    1.293010
H      -1.487384    1.909962   -0.399643
H      -3.193576    1.768777    0.037864
H      -0.989918   -0.213951    0.876970
H      -2.685148   -0.367501    1.306601
H      -3.299732   -0.578671   -1.098585
H      -1.619836   -0.410345   -1.563372
H      -1.003067   -2.481100   -0.290244
H      -2.737147   -4.026725    0.583805
H      -4.820645   -1.946753   -0.333927
H      -5.165517   -3.601685    0.190646
H      -5.315849   -2.144848    1.961720
H      -4.112028   -2.120185   -2.439928
H      -2.825226   -2.813993   -3.438677
H      -4.087474   -3.861025   -2.779975
