19

O       0.077189    1.371037    0.188656
C       0.014109    0.004276   -0.184315
C      -1.402048   -0.573771   -0.069003
C      -1.455343   -2.132562    0.019050
C      -2.097647   -2.315208    1.411067
C      -1.115704   -1.840547    2.503782
O      -1.154808   -0.409806    2.334097
C      -2.095209   -0.216917    1.268302
O      -3.049499   -1.237246    1.445881
H       0.015926    1.389168    1.150492
H       0.356419   -0.050828   -1.223192
H       0.709105   -0.597780    0.418283
H      -2.018978   -0.201497   -0.891988
H      -2.093096   -2.564932   -0.754247
H      -0.466854   -2.596485   -0.052425
H      -2.591253   -3.266482    1.603202
H      -1.460252   -2.096008    3.511569
H      -0.096467   -2.215223    2.360868
H      -2.547819    0.769039    1.354918
