25

C       0.134762    1.617038    0.004364
C       0.198802    0.088397   -0.047594
C       0.581169   -0.535462    1.303429
O      -0.364426   -0.191674    2.320604
C       0.811868   -2.043344    1.237744
C      -0.370311   -2.868400    0.755942
C       2.196816   -2.525724    0.859007
C       1.704993   -2.687257    2.279411
C       2.334213   -1.936819    3.434417
H       1.116670    2.044774    0.236199
H      -0.193500    2.034550   -0.952321
H      -0.560092    1.945256    0.781963
H      -0.774644   -0.307940   -0.367332
H       0.924429   -0.238153   -0.802653
H       1.508524   -0.057956    1.637071
H      -1.221330   -0.541533    2.054245
H      -0.650315   -2.627774   -0.275219
H      -0.135140   -3.936298    0.789425
H      -1.253477   -2.717658    1.389724
H       2.284481   -3.402072    0.224641
H       2.962317   -1.775548    0.680251
H       1.402549   -3.698144    2.545106
H       2.771029   -0.984349    3.122634
H       1.597353   -1.721306    4.214691
H       3.140395   -2.529933    3.879952
