13

N       0.160309    1.397240    0.140545
C      -0.000424    0.012217    0.023718
C      -1.101337   -0.815568   -0.039985
N      -0.719383   -2.130276   -0.055286
C       0.600402   -2.124541   -0.011453
N       1.080050   -0.829811    0.042965
C       1.466084   -3.238684   -0.026705
C       2.232422   -4.168071   -0.032953
H       0.665670    1.807079   -0.638841
H      -0.736109    1.860480    0.218940
H      -2.141137   -0.526701   -0.075982
H       2.042293   -0.557169    0.157749
H       2.893521   -4.998881   -0.040037
