16

O      -0.283568    0.031425   -0.241037
C       0.017340    1.160893    0.041810
C       1.374071    1.780917   -0.219883
C       1.254723    3.031247   -1.110163
N       2.513178    3.746191   -1.225629
C       3.516538    3.588469   -2.122419
C       4.479546    4.476663   -1.708937
N       4.028996    5.120474   -0.597498
N       2.840786    4.676033   -0.303641
H      -0.713898    1.845681    0.531214
H       1.799576    2.093168    0.742585
H       2.028922    1.030882   -0.670082
H       0.920092    2.762066   -2.115438
H       0.533004    3.734527   -0.686837
H       3.456956    2.893600   -2.943207
H       5.444019    4.691837   -2.139073
