15

O      -0.156920   -0.132703   -0.026524
C      -0.040289    1.056013   -0.145005
C      -1.124417    2.061506    0.228945
C      -1.220454    3.193689   -0.782303
N      -0.720769    4.507117   -0.344579
C       0.079767    3.698740   -1.285495
C       1.282104    3.002729   -0.681872
O       1.110574    1.570782   -0.648008
H      -2.056914    1.506495    0.334263
H      -0.875960    2.485660    1.209117
H      -2.062648    3.165427   -1.466958
H      -1.201213    5.246830   -0.850974
H       0.157300    4.024145   -2.318042
H       2.190972    3.156916   -1.265745
H       1.450408    3.377817    0.333067
