19

O      -0.509274    0.608292    0.798689
C       0.097816    0.930127   -0.190929
C       1.368577    1.755561   -0.177812
C       1.362650    2.870602   -1.223360
C       2.580031    3.798895   -1.134827
C       2.581537    4.735070   -2.346784
O       2.480506    3.987758   -3.552478
C       1.334780    3.184171   -3.550111
O       1.333355    2.242215   -2.505444
H      -0.245358    0.629874   -1.203778
H       1.515429    2.158863    0.827916
H       2.208560    1.085707   -0.408320
H       0.447484    3.479952   -1.108325
H       2.555447    4.376537   -0.204226
H       3.493132    3.193435   -1.139650
H       1.740284    5.445784   -2.276598
H       3.507403    5.311480   -2.412598
H       0.429296    3.817817   -3.478536
H       1.330741    2.621820   -4.485551
