18

C       0.691214    1.656258    0.266848
C       0.200608    0.207878    0.204196
C       0.620397   -0.541290   -1.074278
O       1.782823   -1.304015   -0.702382
C       1.812887   -1.462901    0.649113
N       2.594509   -2.208997    1.304663
N       0.835135   -0.645387    1.206969
C       0.522277   -0.635400    2.547177
N      -0.377520    0.143335    3.003319
H       1.772627    1.708730    0.103604
H       0.195352    2.253590   -0.505170
H       0.457550    2.086555    1.242134
H      -0.882135    0.180986    0.350746
H      -0.155973   -1.230968   -1.423364
H       0.902085    0.128315   -1.889081
H       3.193914   -2.737739    0.676112
H       1.124699   -1.355489    3.105890
H      -0.482910    0.002610    4.005768
