15

C      -0.091950    1.444979   -0.021513
N      -0.113122    0.001699    0.006643
C      -0.038079   -0.808696   -1.105617
C       0.127257   -2.102890   -0.664703
O       0.222654   -3.287392   -1.349488
C       0.168285   -2.076833    0.753659
O       0.296360   -3.161307    1.571407
C       0.028125   -0.765128    1.143480
H       0.928730    1.848488   -0.052709
H      -0.633826    1.802928   -0.901199
H      -0.591896    1.835715    0.868823
H      -0.108930   -0.400748   -2.101138
H       0.073105   -3.129109   -2.285479
H       0.336636   -3.939474    1.004443
H       0.010906   -0.324702    2.126151
