17

C      -0.050974    1.569048   -0.023845
C      -0.077286    0.035833   -0.059734
O       0.500145   -0.496646    1.137486
C      -1.515827   -0.501193   -0.057340
O      -2.194194   -0.145830    1.129535
C       0.706977   -0.511365   -1.256143
O       2.070401   -0.145139   -1.051582
H       0.977238    1.931451    0.051519
H      -0.494643    1.990276   -0.932454
H      -0.623935    1.922136    0.835422
H       1.453726   -0.377501    1.050019
H      -2.084001   -0.076387   -0.891552
H      -1.485762   -1.595342   -0.184769
H      -1.602554   -0.396539    1.849945
H       0.598945   -1.604551   -1.289371
H       0.319450   -0.092600   -2.196770
H       2.619413   -0.649460   -1.657771
