10

O      -0.095966    0.098528    0.251062
C       0.179854    1.117004   -0.320553
C       1.322582    2.026116    0.117582
O       1.257970    3.261160   -0.582598
C       2.306247    3.614370   -1.362229
O       2.326439    4.625958   -1.989467
H      -0.369155    1.478953   -1.217191
H       1.245095    2.216582    1.192494
H       2.275017    1.508902   -0.066584
H       3.122366    2.865273   -1.341845
