18

N      -0.049768    1.287100   -0.011661
C      -0.026311    0.024112    0.004933
O       1.127045   -0.716915    0.022444
C       0.866507   -2.134462    0.003791
C       0.115223   -2.515153    1.281955
C      -1.212918   -1.710825    1.296607
C      -1.250641   -0.855794    0.009466
C      -1.130603   -1.807852   -1.192494
O       0.140893   -2.475821   -1.144529
H       0.903124    1.658181   -0.008432
H       1.842380   -2.611834   -0.085606
H      -0.059211   -3.594279    1.275547
H       0.741493   -2.284194    2.147642
H      -2.080006   -2.377703    1.314138
H      -1.278833   -1.066159    2.176282
H      -2.147002   -0.240232   -0.059252
H      -1.932780   -2.557409   -1.170083
H      -1.189928   -1.264019   -2.141381
