15

C      -0.010610    1.578938    0.066776
C       0.049385    0.072267    0.077760
O      -1.110553   -0.575739   -0.370757
C       1.294224   -0.725032   -0.166615
O       2.453534   -0.034593    0.360916
C       1.930826   -0.140676    1.657090
N       2.441949    0.163486    2.758709
C       0.654375   -0.766968    1.211049
H       0.927553    2.018878    0.407852
H      -0.199083    1.940672   -0.951704
H      -0.823102    1.928541    0.709878
H      -1.281897   -0.282717   -1.273113
H       1.449383   -1.491464   -0.913798
H       3.378930    0.551412    2.637476
H       0.077700   -1.527379    1.715541
