17

N      -0.169493   -1.130487   -0.408977
C      -0.074275    0.000290   -0.191849
C       0.008579    1.442912    0.050586
C      -0.695242    1.857235    1.370288
O       0.114073    1.648777    2.500115
C       1.214302    2.537385    2.546855
C       2.058857    2.480382    1.290633
N       2.415167    1.139146    0.826977
C       1.463637    1.930660    0.040225
H      -0.527362    1.934814   -0.770419
H      -0.972120    2.920928    1.283756
H      -1.605949    1.273013    1.518019
H       0.862107    3.573122    2.694353
H       1.804062    2.246379    3.421018
H       2.788595    3.282045    1.192020
H       3.327274    1.130664    0.380399
H       1.803054    2.335448   -0.909003
