20

O       0.233643    0.171714   -0.620874
C       0.217862    1.327511   -0.258290
N       1.242313    1.970300    0.385058
C       2.669229    1.938599    0.147778
C       3.218940    1.352842   -1.150869
C       3.227544    2.356597   -2.316348
C       1.908372    3.131379   -2.419805
C       1.678837    3.991312   -1.165723
C       1.885587    3.240146    0.137683
H      -0.678668    1.973097   -0.345652
H       3.245978    1.719700    1.044400
H       4.236224    0.994536   -0.965960
H       2.619013    0.475221   -1.411426
H       4.047652    3.074207   -2.177833
H       3.432291    1.825268   -3.251571
H       1.916386    3.784161   -3.298833
H       1.078577    2.429495   -2.566109
H       2.391410    4.826696   -1.168797
H       0.680390    4.444898   -1.180382
H       1.959547    3.875937    1.019396
