17

C      -1.805658    0.762494   -0.836851
N      -0.827246   -0.277617   -0.538524
C       0.392047   -0.401570   -1.311199
C       0.774171    0.546671   -2.442495
C       0.024063    0.277359   -3.669543
N      -0.574588    0.057821   -4.633172
C       0.444813    0.069553    0.120985
C       0.793157    1.431262    0.422382
C       1.077406    2.566879    0.701951
H      -1.381545    1.758252   -1.020121
H      -2.379427    0.453768   -1.714606
H      -2.489932    0.841048    0.012422
H       0.679427   -1.433719   -1.505240
H       0.630010    1.590904   -2.153762
H       1.842985    0.428588   -2.655424
H       0.751258   -0.647459    0.879891
H       1.332355    3.566275    0.956546
