18

O      -0.096460    1.294559    0.515918
C       0.018456   -0.066187    0.185615
C       1.082753   -0.468444   -0.777693
C       1.258417   -0.784973    0.710487
C       2.280938   -0.033593    1.477377
O       2.911806   -0.500725    2.393556
C      -1.280974   -0.821648    0.236871
C      -2.287292   -0.500424    1.275496
N      -2.536827   -0.158449   -0.139874
H      -0.140136    1.801054   -0.301605
H       0.905630   -1.300258   -1.449936
H       1.717514    0.316951   -1.177956
H       1.130948   -1.814001    1.028306
H       2.435712    1.013772    1.140974
H      -1.202665   -1.848361   -0.114621
H      -2.920638   -1.285325    1.677686
H      -2.054455    0.308361    1.961302
H      -2.357755    0.837293   -0.255468
