23

C      -0.111272    1.525981    0.011632
C       0.080132    0.026944   -0.029072
C       0.760527   -0.626473   -1.255200
C      -0.352193   -1.684404   -1.065682
C      -1.064595   -2.247735   -2.274213
C       0.043878   -2.731591   -0.013752
C       0.923278   -2.083248    1.081925
C       0.585659   -0.586969    1.285304
O      -1.156047   -0.682284   -0.363742
H       0.848225    2.033972    0.156133
H      -0.558099    1.879979   -0.921579
H      -0.773302    1.808811    0.837337
H       0.604615   -0.037740   -2.162119
H       1.806094   -0.933868   -1.183780
H      -0.400984   -2.911024   -2.839224
H      -1.944048   -2.825672   -1.969882
H      -1.396979   -1.440604   -2.932932
H      -0.886556   -3.125887    0.410125
H       0.573834   -3.573341   -0.475127
H       0.834579   -2.631732    2.024415
H       1.974254   -2.168783    0.784817
H       1.464285   -0.048525    1.659948
H      -0.213197   -0.460422    2.024671
