18

C      -0.095037    1.609020    0.005013
C       0.034330    0.083769   -0.025455
N       0.899059   -0.390928   -1.117978
C       1.401690   -1.721137   -0.735582
C       1.781373   -1.523053    0.735117
C       0.817560   -0.442268    1.219664
O       0.681648   -0.033870    2.338513
C      -1.284772   -0.568751   -0.019876
C      -2.346488   -1.134891   -0.048368
H       0.898529    2.059090   -0.059996
H      -0.699855    1.963385   -0.833960
H      -0.571133    1.917246    0.938680
H       0.399232   -0.415310   -2.000038
H       0.639686   -2.511113   -0.825690
H       2.251837   -1.993659   -1.365994
H       1.706122   -2.419359    1.354078
H       2.798600   -1.129520    0.839208
H      -3.290593   -1.621484   -0.063905
