16

N      -0.045143    1.275026   -0.020728
C      -0.007962    0.018244   -0.012445
O       1.107205   -0.776749   -0.035889
C       0.634633   -2.132256    0.050705
C       0.469151   -2.534139    1.518861
O      -0.362110   -1.607057    2.198309
C      -1.546190   -1.264011    1.484391
C      -1.197065   -0.930314    0.032140
O      -0.635398   -2.113238   -0.561726
H       0.895723    1.672187   -0.024421
H       1.310547   -2.782701   -0.507499
H       0.049501   -3.552065    1.546105
H       1.430457   -2.529162    2.039521
H      -2.269573   -2.093286    1.492583
H      -1.975134   -0.400177    1.998268
H      -2.050800   -0.592514   -0.553408
