23

C       0.079933    1.319884   -0.540676
N      -0.108557    0.160851    0.319100
C      -1.385158   -0.539761    0.215596
C      -1.348097   -1.868778   -0.579377
C      -0.991451   -1.740510   -2.071019
C      -0.751277   -3.134029   -2.669712
C      -2.067412   -0.990521   -2.869021
C      -1.908731   -0.818418    1.573032
N      -2.318837   -1.058510    2.626434
H       1.067990    1.746101   -0.344822
H       0.004447    1.120821   -1.622508
H      -0.659572    2.087355   -0.288093
H       0.664728   -0.488528    0.254837
H      -2.104865    0.140163   -0.255149
H      -0.622339   -2.526862   -0.083948
H      -2.322449   -2.363272   -0.476722
H      -0.050618   -1.178974   -2.149546
H      -1.657986   -3.747592   -2.610673
H      -0.466098   -3.064595   -3.724242
H       0.045380   -3.666476   -2.139921
H      -3.030613   -1.511132   -2.809212
H      -2.219160    0.032253   -2.510793
H      -1.791250   -0.926297   -3.926288
