17

O      -0.024002    1.397439    0.128469
C       0.022761    0.001679    0.029423
C      -1.382202   -0.626889   -0.200563
C      -1.242046   -0.192865   -1.692492
C       0.239626   -0.581463   -1.415346
O       0.179723   -1.998279   -1.170567
C      -0.982454   -2.100214   -0.305386
C       1.351487   -0.184797   -2.234393
C       2.278480    0.226476   -2.880716
H       0.844963    1.738573   -0.112850
H       0.657939   -0.456289    0.799575
H      -2.239042   -0.363907    0.416816
H      -1.759834   -0.775445   -2.456711
H      -1.376024    0.877023   -1.831035
H      -0.691700   -2.548159    0.651350
H      -1.746237   -2.727082   -0.778912
H       3.095034    0.568772   -3.467580
