25

C       0.098981    1.583374   -0.113766
C       0.041251    0.053118   -0.172512
C      -1.362821   -0.548357    0.048555
C      -2.279699   -0.292898   -1.166374
C      -3.775005   -0.497262   -0.899819
C      -1.280489   -2.055982    0.366488
C      -0.706170   -2.387329    1.756771
C      -0.803289   -3.864697    2.059532
O       0.122064   -4.574837    2.357605
H       1.124226    1.939736   -0.254127
H      -0.516990    2.053526   -0.886387
H      -0.249958    1.952493    0.857212
H       0.424080   -0.295925   -1.141584
H       0.729979   -0.344211    0.581499
H      -1.811703   -0.046669    0.920354
H      -2.131054    0.734105   -1.517661
H      -1.957854   -0.941788   -1.992774
H      -4.125726    0.164629   -0.100035
H      -4.364376   -0.275307   -1.794969
H      -4.010039   -1.524828   -0.604856
H      -2.281512   -2.498363    0.297391
H      -0.674691   -2.551432   -0.404187
H       0.338321   -2.085568    1.865389
H      -1.296136   -1.857220    2.519571
H      -1.837133   -4.279192    1.979026
