20

O       0.711117   -0.019481   -0.832427
C      -0.321134    0.402479    0.060334
C      -1.566442   -0.478898    0.042397
C      -1.966656   -1.178797   -1.257077
C      -1.397847   -1.964295   -0.088503
O      -0.153055   -2.581963   -0.134782
N      -2.520053    0.066681    0.982932
C      -3.572119    0.949078    0.478116
C      -3.896652   -0.402908    1.009092
H       0.455358    0.224889   -1.727173
H       0.114440    0.368034    1.062874
H      -0.605195    1.444660   -0.140544
H      -3.016680   -1.295482   -1.505853
H      -1.326680   -1.049356   -2.125024
H      -2.103836   -2.580999    0.460657
H       0.475848   -1.928302   -0.475410
H      -3.767857    1.839768    1.067857
H      -3.646926    1.082012   -0.599841
H      -4.216126   -1.154721    0.290663
H      -4.325973   -0.520459    2.000093
