21

C      -0.223454    1.592032   -0.244655
C      -0.072014    0.076679   -0.071415
C       1.136123   -0.510511   -0.896769
C       2.008416   -0.558827    0.420848
O       2.979088    0.461553    0.558348
C       0.683298   -0.402781    1.151608
C      -0.084638   -1.006826    2.053567
C      -1.545343   -0.906497    1.619927
C      -1.434817   -0.643426    0.082581
H       0.740510    2.111069   -0.205525
H      -0.672393    1.824050   -1.217441
H      -0.864846    2.019620    0.533578
H       0.936829   -1.510136   -1.291105
H       1.547067    0.124613   -1.686957
H       2.540455   -1.496750    0.599753
H       2.526829    1.289579    0.745272
H       0.241761   -1.581575    2.913406
H      -2.097274   -1.826338    1.841022
H      -2.079725   -0.098241    2.138823
H      -2.280543   -0.071727   -0.312582
H      -1.414586   -1.605350   -0.441623
