18

C      -0.041867    1.541408    0.011891
N      -0.031819    0.070209   -0.040069
C      -1.126315   -0.766886    0.571354
C      -0.149114   -1.961786    0.413342
C       0.643618   -0.770437    1.013296
C      -0.548897   -0.552623    2.025858
N      -0.698266    0.755260    2.634949
C      -0.796432   -1.622997    3.008523
N      -1.003824   -2.409176    3.832711
H       0.687497    1.940539    0.720522
H       0.207694    1.913555   -0.988942
H      -1.016486    1.944150    0.297066
H      -2.170685   -0.685610    0.265546
H      -0.306734   -2.839840    1.037547
H       0.107790   -2.193665   -0.617409
H       1.709463   -0.693383    1.234375
H      -1.632893    0.852342    3.022508
H      -0.054984    0.849137    3.416312
