19

O       0.023516    0.050853    0.715560
C      -0.020796    1.112724    0.156532
C      -1.335615    1.846706   -0.110342
C      -1.219417    3.082726   -1.013502
C      -0.847493    2.696885   -2.468044
C       0.707174    2.580673   -2.465333
C       1.115625    2.919560   -1.020772
C       0.017082    3.869060   -0.544994
O       1.136402    1.717308   -0.212649
H      -2.038819    1.107846   -0.506220
H      -1.718425    2.130716    0.877589
H      -2.146318    3.660181   -0.969030
H      -1.337523    1.771083   -2.781666
H      -1.172231    3.478935   -3.160313
H       1.071260    1.588792   -2.741154
H       1.158884    3.297866   -3.156913
H       2.129073    3.313195   -0.934825
H       0.106842    4.830374   -1.061918
H       0.049334    4.050336    0.533018
