16

C      -0.032745    1.459361   -0.005100
C       0.009745   -0.032502   -0.021450
N       0.019252   -0.763752   -1.101622
C       0.060493   -2.088424   -0.679100
N       0.143262   -3.089872   -1.632873
C       0.073342   -2.161942    0.682616
N       0.042554   -0.828412    1.117095
C       0.038244   -0.407368    2.438717
O       0.061252   -1.156453    3.381979
H       0.847179    1.892832    0.482433
H      -0.056285    1.802955   -1.039885
H      -0.921278    1.843727    0.507361
H      -0.225727   -2.796048   -2.526605
H      -0.230446   -3.982567   -1.345398
H       0.105716   -2.970000    1.390004
H       0.011041    0.691514    2.527483
