20

C      -0.414239    1.492656    0.046753
C       0.065872    0.043155   -0.018430
C       0.861685   -0.368452    1.222271
O       0.068555   -0.314362    2.392783
O      -1.013991   -0.896828   -0.065828
C      -1.732408   -0.939784   -1.259384
C      -3.023330   -1.691282   -1.227263
C      -3.031760   -0.184429   -1.393909
H       0.446421    2.169605    0.048231
H      -1.041420    1.743491   -0.811344
H      -0.981782    1.657141    0.966078
H       0.702363   -0.098794   -0.907355
H       1.268311   -1.378607    1.061435
H       1.702061    0.317069    1.372268
H      -0.719745   -0.833889    2.194701
H      -1.105258   -1.034767   -2.146579
H      -3.280351   -2.318161   -2.073411
H      -3.328056   -2.082377   -0.263084
H      -3.348103    0.401041   -0.538566
H      -3.295094    0.236500   -2.358464
