16

C       0.010738    1.451345   -0.071812
N      -0.020028    0.027506    0.202608
C      -1.207413   -0.685719    0.082735
C      -2.475996   -0.098622    0.036502
N      -3.599236   -0.819129   -0.025043
C      -3.459832   -2.140471   -0.051391
O      -4.581477   -2.884564   -0.112449
N      -2.315085   -2.820979   -0.027905
C      -1.211873   -2.089677    0.040630
H       1.043748    1.799522   -0.009298
H      -0.388625    1.717384   -1.063712
H      -0.566824    1.998704    0.681371
H       0.786832   -0.473922   -0.137137
H      -2.599835    0.980052    0.051951
H      -5.315653   -2.256728   -0.123763
H      -0.268316   -2.635440    0.063261
