14

N      -0.112969    1.288392    0.010752
C      -0.000091    0.018104    0.003110
N       1.129644   -0.797008   -0.006838
C       0.806748   -2.162146   -0.013046
N       1.577458   -3.171694   -0.022515
C      -0.684018   -2.189799   -0.006001
C      -1.562912   -3.376777   -0.008386
O      -1.205225   -4.526367   -0.016365
C      -1.136535   -0.921213    0.003311
H       0.797414    1.752656    0.008992
H       2.074760   -0.450369   -0.009680
H       2.561675   -2.895157   -0.025700
H      -2.642913   -3.104284   -0.001775
H      -2.163276   -0.582583    0.010171
