19

C      -0.026825    1.509549    0.074253
C       1.291688    0.770435   -0.012095
C      -0.003673    0.015633   -0.006749
C      -0.454803   -0.988507    1.042674
O      -1.867064   -1.188564    0.878920
C      -0.973566   -1.891320    0.001890
C      -0.545195   -0.927561   -1.093926
C      -1.247893   -0.617847   -2.378106
C       0.105771   -1.295772   -2.393326
H      -0.303571    1.970957    1.016357
H      -0.359178    2.055839   -0.802985
H       1.850386    0.822662   -0.941355
H       1.914831    0.723064    0.875618
H      -0.024476   -1.197789    2.015557
H      -1.044369   -2.972715   -0.030597
H      -2.124442   -1.200929   -2.640262
H      -1.296786    0.421759   -2.686762
H       0.966195   -0.718464   -2.717023
H       0.152687   -2.346555   -2.662098
