17

C       0.228408    1.480152   -0.101181
N      -0.055609    0.058565    0.001414
C       0.549250   -0.659254    1.040808
C       0.645858   -2.020744    1.153373
C       0.221135   -3.145810    0.281331
O       1.267611   -2.339150    2.335987
C       1.553741   -1.178970    2.968506
C       1.144369   -0.113711    2.232041
H       1.302104    1.721182   -0.169172
H      -0.271356    1.877196   -0.988401
H      -0.179652    2.006677    0.767897
H       0.033235   -0.409656   -0.888955
H      -0.467242   -2.782763   -0.487653
H       1.063015   -3.636782   -0.224794
H      -0.305578   -3.915135    0.857083
H       2.045743   -1.269639    3.922907
H       1.250008    0.925890    2.496643
