13

O       0.109282    1.438465    0.169976
C      -0.020784    0.045096    0.040940
C      -1.437293   -0.438661   -0.103319
C      -1.497032   -1.243876   -1.176389
N      -0.250517   -1.334113   -1.839390
C       0.653609   -0.471741   -1.251315
O       1.739299   -0.145993   -1.664211
C      -2.610405   -1.981120   -1.662158
N      -3.506525   -2.584007   -2.077942
H       0.995199    1.657168   -0.151032
H       0.454169   -0.482619    0.889880
H      -2.244515   -0.231596    0.581039
H      -0.133649   -1.701435   -2.771606
