13

C      -0.042342    1.474027    0.008682
N      -0.013284    0.022558    0.000620
C      -1.131011   -0.783985    0.003311
O      -2.281777   -0.428180    0.012511
C      -0.572272   -2.201194   -0.007988
O       0.849275   -2.041817   -0.016128
C       1.170075   -0.721219   -0.011005
O       2.286800   -0.296153   -0.015903
H       0.990086    1.823222   -0.000388
H      -0.572552    1.845279   -0.871712
H      -0.553550    1.836250    0.903992
H      -0.880469   -2.756730    0.882279
H      -0.891768   -2.746964   -0.900310
