19

C       0.092427    1.526081   -0.077432
C       0.006891    0.007796    0.113382
C      -1.413285   -0.542934    0.029211
O      -2.245360   -0.055960    1.070150
C      -2.144406   -0.505377   -1.376816
C      -2.283261   -2.027993   -1.292714
N      -0.898673   -2.558525   -1.214289
C      -1.576095   -2.071953    0.011499
H       1.131002    1.867007   -0.036014
H      -0.317697    1.834024   -1.045703
H      -0.450185    2.068660    0.706126
H       0.608060   -0.500960   -0.645932
H       0.419825   -0.264877    1.092715
H      -2.307764    0.900421    0.977779
H      -3.098169    0.019393   -1.291984
H      -1.577223   -0.134765   -2.234733
H      -3.090815   -2.644573   -1.667266
H      -0.964734   -3.576043   -1.202540
H      -1.719288   -2.705375    0.878285
