21

C       0.168575    1.626039    0.149139
O       1.421637    1.497718   -0.551996
C       1.270956    0.063027   -0.665995
C       2.448601   -0.711008   -0.090510
C       2.150069   -2.206713    0.089253
O       1.452631   -2.513665    1.282450
C       0.084799   -2.155326    1.325179
C      -0.166767   -0.643879    1.444780
C      -0.071367    0.100250    0.115802
H       0.300709    2.061470    1.148568
H      -0.553282    2.235626   -0.408603
H       1.135503   -0.223811   -1.719469
H       3.306535   -0.589473   -0.763247
H       2.741446   -0.292158    0.877729
H       1.602591   -2.596645   -0.786918
H       3.089630   -2.763030    0.159330
H      -0.446931   -2.558740    0.445519
H      -0.312286   -2.663899    2.209492
H      -1.168890   -0.487959    1.865173
H       0.544179   -0.239852    2.175049
H      -0.918245   -0.184705   -0.515304
