19

C       0.011179    1.576854   -0.023372
C       0.055668    0.066676   -0.002612
C       0.483948   -0.702702   -1.240565
C       0.382168   -1.988499   -0.888814
C      -0.098454   -1.930998    0.544868
C       0.722229   -0.750380    1.185003
C      -0.107111   -0.364501    2.399049
O      -1.441565   -0.394304    1.834738
C      -1.182343   -0.787438    0.506983
H       1.017450    2.006906   -0.081714
H      -0.553493    1.937518   -0.890245
H      -0.476794    1.971479    0.872738
H       0.757956   -0.260827   -2.188820
H       0.549833   -2.883155   -1.471200
H      -0.283097   -2.851322    1.099332
H       1.807084   -0.807100    1.289240
H      -0.038420   -1.083874    3.223454
H       0.109653    0.637661    2.786032
H      -2.107384   -0.873551   -0.064957
