19

C       0.116640    1.319288   -0.330080
O      -0.025768    0.059171    0.311086
C      -1.271222   -0.493301    0.184020
C      -1.564037   -1.966069    0.130756
C      -2.540648   -2.382657    1.231848
C      -3.014148   -1.029884    1.840770
C      -2.637119   -0.018508    0.765572
O      -3.311489   -0.399609   -0.481383
C      -2.109630   -1.015188   -0.944730
H       1.154192    1.629234   -0.189453
H      -0.100900    1.245055   -1.403583
H      -0.544985    2.076798    0.110655
H      -0.767559   -2.625694   -0.196543
H      -3.383033   -2.946846    0.821875
H      -2.051784   -3.016434    1.976765
H      -4.085566   -1.013805    2.058662
H      -2.474750   -0.797833    2.767003
H      -2.794670    1.036194    0.998477
H      -1.971909   -1.140972   -2.011844
