22

C       0.439488    1.378966    0.267886
C      -0.070471   -0.069518    0.155441
C       0.211478   -0.821042    1.471273
C      -1.593359   -0.047381   -0.083760
C       0.566814   -0.789778   -1.062135
C       2.101462   -0.731682   -1.195933
O       2.820241   -1.334620   -0.133977
C       2.505758   -1.323439   -2.491651
N       2.809231   -1.815896   -3.492152
H       1.499630    1.420321    0.537166
H       0.302473    1.926987   -0.671461
H      -0.112033    1.915966    1.046443
H      -0.303736   -0.331640    2.304883
H      -0.155807   -1.852911    1.420252
H       1.278893   -0.850272    1.697140
H      -1.849518    0.526852   -0.980826
H      -1.990763   -1.060636   -0.209394
H      -2.110744    0.410086    0.765997
H       0.260522   -1.844712   -1.065177
H       0.156928   -0.355209   -1.982590
H       2.429355    0.312665   -1.201482
H       2.566525   -2.263977   -0.088091
