21

C       0.163101    1.424926    0.801184
C      -0.063991   -0.042162    0.476455
O       0.908080   -0.807280    1.166808
C       0.889841   -2.210075    0.873211
C       2.050989   -2.850867    1.649445
C       1.433697   -3.217466    3.017413
O       1.557670   -2.178546    3.985152
C      -0.022287   -3.451267    2.652950
C      -0.325473   -2.897561    1.479220
H       1.167368    1.734331    0.498405
H      -0.567347    2.049062    0.277753
H       0.060391    1.600907    1.875961
H      -1.080555   -0.345777    0.770708
H       0.026109   -0.216902   -0.608696
H       0.967503   -2.346317   -0.215384
H       2.377718   -3.757242    1.130771
H       2.901693   -2.174058    1.748330
H       1.910503   -4.090628    3.471871
H       1.212944   -1.380893    3.562623
H      -0.717377   -3.938787    3.327438
H      -1.309891   -2.871700    1.026000
