19

O       0.153800    1.078342   -0.450626
C      -0.059565   -0.085430    0.364044
C      -1.421096   -0.704778    0.120803
C      -1.782802   -1.059603   -1.302922
O      -0.798860   -0.901978   -2.279451
C      -1.596621   -2.165003   -0.293992
C      -0.445961   -3.109703   -0.415397
C      -0.145121   -4.100049    0.628477
O      -0.800083   -4.488947   -0.578480
H      -0.534566    1.716917   -0.235793
H       0.748634   -0.766005    0.092633
H       0.067407    0.161973    1.426432
H      -2.220792   -0.296944    0.734340
H      -2.796520   -0.852230   -1.643813
H      -0.384920   -0.041375   -2.118274
H      -2.498241   -2.648248    0.070184
H       0.358689   -2.785103   -1.071150
H       0.872408   -4.469582    0.752226
H      -0.761524   -4.135165    1.526598
