19

C      -0.076742    1.539789    0.083357
C       0.014276    0.022925   -0.016924
C       0.730327   -0.611390    1.173396
O      -1.347983   -0.444690   -0.094054
C      -1.561113   -1.664955   -0.623057
C      -2.787709   -2.279129   -0.718207
N      -2.517618   -3.485600   -1.343025
C      -1.185893   -3.536750   -1.581125
N      -0.573848   -2.447615   -1.157060
H       0.924790    1.978058    0.125387
H      -0.601802    1.953351   -0.781804
H      -0.619919    1.833507    0.987406
H       0.526595   -0.264114   -0.941074
H       0.772778   -1.696474    1.059571
H       1.755553   -0.233161    1.242945
H       0.209231   -0.370470    2.105862
H      -3.777144   -1.982383   -0.420470
H      -3.193167   -4.194004   -1.572928
H      -0.710832   -4.379678   -2.059182
