21

C       0.150052    1.638849    0.109565
C       0.098599    0.125744    0.107649
C       1.267838   -0.765685   -0.303043
C       2.631100   -0.200939   -0.668251
C       3.360716    0.460973    0.468241
C       2.941476    0.470426    1.731468
C       1.677640   -0.186428    2.216196
C       0.789378   -0.759492    1.121373
O       0.098720   -1.927393    1.503116
H       1.117512    2.022147    0.439999
H      -0.038947    2.034761   -0.894924
H      -0.618448    2.055052    0.771246
H      -0.862649   -0.279296   -0.200559
H       0.977922   -1.647296   -0.865643
H       3.258613   -1.016959   -1.053769
H       2.541133    0.505626   -1.506742
H       4.298246    0.949709    0.213015
H       3.540695    0.966093    2.491741
H       1.942729   -1.023406    2.876210
H       1.112731    0.517719    2.846518
H      -0.597742   -1.668158    2.116993
