14

C      -0.047248    1.508214   -0.055775
N       1.209746    0.734190    0.084325
C      -0.068237    0.035544    0.006275
C      -0.529617   -0.963101    1.098445
C      -0.915965   -1.919374   -0.045545
O      -1.870982   -1.236775   -0.866678
C      -0.478098   -0.956896   -1.071287
H      -0.315635    2.092314    0.820081
H      -0.268335    1.986917   -1.006478
H       1.694517    0.690269   -0.809936
H       0.316686   -1.310957    1.695662
H      -1.353816   -0.658632    1.747273
H      -0.930330   -3.002512   -0.058242
H      -0.075599   -1.098671   -2.068998
