18

C      -0.152146    1.534348   -0.192494
C      -0.114150    0.006697   -0.267918
C       1.155906   -0.531633   -0.939875
O       2.338663   -0.089651   -0.271147
C       1.128381   -2.040390   -1.070109
C       0.791050   -2.678115   -2.368178
N       2.166508   -2.726220   -1.849164
H       0.735037    1.914367    0.320290
H      -0.172025    1.977231   -1.194493
H      -1.039549    1.882893    0.343966
H      -0.178839   -0.419967    0.743527
H      -0.986079   -0.372627   -0.815404
H       1.241590   -0.095696   -1.944891
H       2.378110   -0.536896    0.581964
H       0.857745   -2.567287   -0.153786
H       0.274656   -3.633608   -2.390999
H       0.568343   -2.025709   -3.209450
H       2.747474   -2.032269   -2.315203
