17

C       0.776481   -0.132174    0.048823
C      -0.542812   -0.211266   -0.689247
O      -0.639023   -0.026897   -1.880419
C      -1.790881   -0.466602    0.165837
C      -1.961101   -1.860169    0.780483
O      -2.395661   -2.005128    1.898764
C      -1.619113   -3.073780   -0.041297
C      -1.690312   -3.090182   -1.518282
O      -0.439607   -2.991024   -0.850396
H       1.592088   -0.016062   -0.665177
H       0.767471    0.721469    0.736805
H       0.934887   -1.032303    0.650578
H      -1.826125    0.233885    1.005159
H      -2.659921   -0.278277   -0.474155
H      -1.742284   -4.004964    0.508361
H      -1.883055   -4.043519   -2.006581
H      -1.988914   -2.199192   -2.064957
