14

C      -0.099859    1.554030   -0.060760
C       1.466262    1.697006    0.022211
O       2.081292    2.164254    1.225112
C       2.437143    1.027709    2.088831
C       1.651623   -0.111984    1.486536
C       1.367069    0.225869    0.210147
N       0.019320   -0.009828   -0.013791
N      -0.432599   -0.695490    1.147874
N       0.535312   -0.774566    1.990661
H      -0.616666    1.903092    0.831302
H      -0.578405    1.876899   -0.983745
H       1.936729    2.169928   -0.840041
H       3.525171    0.905430    2.071928
H       2.117012    1.250970    3.109809
