21

C      -0.100661    1.384356   -0.056064
O       0.000932   -0.026373   -0.012093
C       0.677494   -0.593543    1.116591
C       0.471592   -2.109081    0.957562
C       2.177794   -0.207945    1.140094
C       2.937487   -0.551741   -0.137506
O       4.234614    0.016331   -0.010640
C       0.057155   -0.152749    2.379913
C      -0.439765    0.199948    3.416367
H       0.872999    1.871903   -0.203327
H      -0.737622    1.617156   -0.912823
H      -0.562870    1.787820    0.853615
H       0.847499   -2.435555   -0.014610
H       0.993459   -2.653529    1.748139
H      -0.593643   -2.341925    1.010841
H       2.276393    0.867649    1.315414
H       2.652325   -0.700818    1.994583
H       2.998786   -1.642428   -0.268253
H       2.401780   -0.146704   -1.007923
H       4.728814   -0.189160   -0.809469
H      -0.882512    0.508594    4.331320
