18

C      -0.036861    1.407749   -0.041875
C       0.008415   -0.082341    0.010962
N      -0.031788   -0.833300   -1.091121
N       0.055176   -2.076806   -0.570749
C      -0.012835   -3.399568   -1.158111
C       0.391030   -4.282480    0.059597
C       0.147534   -3.415935    1.337027
C       0.122815   -2.032747    0.768370
N       0.101249   -0.782732    1.189197
H       0.873696    1.839580    0.385901
H      -0.136171    1.744167   -1.075266
H      -0.880677    1.790142    0.540977
H      -1.027604   -3.609473   -1.515616
H       0.673707   -3.495698   -2.002594
H      -0.165290   -5.220967    0.079384
H       1.452876   -4.530464   -0.014062
H      -0.809886   -3.653309    1.814909
H       0.926412   -3.555458    2.090069
