18

C      -0.290487    1.327590    0.107115
N      -0.156376   -0.106317    0.261801
C       0.846002   -0.675783    0.976450
O       1.732830   -0.076536    1.559913
C       0.778698   -2.178887    0.998154
C       1.771191   -3.210349    0.399270
C       0.499978   -3.942685    0.886838
C       0.539495   -3.129301    2.200976
O      -0.325786   -2.867578    0.273992
H       0.536755    1.792341    0.645481
H      -0.241299    1.620130   -0.947509
H      -1.237027    1.686822    0.525994
H      -0.824225   -0.727945   -0.167691
H       1.893664   -3.155783   -0.682696
H       2.706393   -3.380479    0.935011
H       0.178434   -4.968735    0.713160
H       1.371206   -3.292622    2.888096
H      -0.420425   -3.003627    2.702361
