18

C      -0.107219    1.529834    0.107530
C      -0.037243    0.038802    0.023293
C       0.087672   -0.715360   -1.071878
C       0.114865   -2.212211   -0.767003
C       1.236467   -2.926298   -1.370315
C       2.144468   -3.522351   -1.884594
C       0.096532   -2.234335    0.770068
N       1.246686   -1.565333    1.401972
C      -0.044080   -0.834842    1.241681
H       0.737832    1.928607    0.682431
H      -0.094140    1.990026   -0.883827
H      -1.019853    1.856886    0.621816
H       0.196704   -0.345783   -2.084797
H      -0.815172   -2.675731   -1.131021
H       2.956945   -4.042571   -2.327613
H      -0.368387   -3.072949    1.275725
H       1.318147   -1.903458    2.360594
H      -0.609282   -0.562299    2.127482
