18

C      -0.171332    1.583100    0.063437
C       0.012802    0.072238    0.023991
C       1.112262   -0.527852   -0.927571
O       2.005739    0.356498   -1.562944
C       1.779609   -1.238524    0.277923
N       2.773913   -0.434007    0.984558
C       1.859948    0.191120    1.820305
O       1.974899    1.076004    2.624244
C       0.697682   -0.640665    1.240530
H       0.776467    2.103828    0.216786
H      -0.610538    1.944245   -0.873901
H      -0.844905    1.870817    0.876383
H      -0.947330   -0.410458   -0.183069
H       0.685477   -1.245350   -1.641669
H       1.529903    0.832672   -2.250670
H       2.019766   -2.298275    0.191034
H       3.621985   -0.034739    0.604406
H       0.080069   -1.221857    1.921826
