20

C      -0.468341    1.505894   -0.087974
C      -0.028432    0.047704   -0.031854
C       0.727733   -0.489845   -1.272085
C       1.570097   -1.644943   -0.692769
C       3.127213   -1.661983   -0.772956
C       3.143944   -1.505470    0.777948
N       1.670524   -1.362978    0.755645
C       0.987653   -0.216340    1.102511
O       1.191677    0.471613    2.077577
H       0.376166    2.160085   -0.328141
H      -1.243634    1.657019   -0.845044
H      -0.859749    1.819544    0.883115
H      -0.903500   -0.589428    0.157566
H       0.063941   -0.805383   -2.080471
H       1.382161    0.296987   -1.667193
H       1.115491   -2.621062   -0.897311
H       3.576113   -2.575396   -1.166177
H       3.542467   -0.801842   -1.303755
H       3.475199   -2.393287    1.323634
H       3.646734   -0.625735    1.188300
