23

C      -0.141875    1.482511    0.012123
C      -0.016149   -0.031043    0.002793
O      -1.324087   -0.585585    0.010580
C      -1.366230   -1.960587    0.004249
C      -0.821328   -2.959117    1.076602
C      -1.543811   -3.823805   -0.003365
C      -1.696960   -5.320019   -0.009396
C      -2.686439   -2.757072    0.010867
C      -0.838496   -2.948642   -1.086237
H       0.848672    1.947383    0.006296
H      -0.693085    1.827019   -0.867423
H      -0.678144    1.817360    0.904541
H       0.531151   -0.369949   -0.890191
H       0.545835   -0.379665    0.882815
H       0.263593   -3.080077    1.147178
H      -1.289847   -2.919506    2.064253
H      -2.237046   -5.664667    0.879155
H      -2.253810   -5.655808   -0.890964
H      -0.720341   -5.816332   -0.021130
H      -3.288942   -2.696944    0.921676
H      -3.303298   -2.688206   -0.889657
H      -1.322604   -2.899478   -2.065908
H       0.245161   -3.068841   -1.175164
