17

O       0.363393    1.054432    1.288598
C       0.325978    1.660809    0.250742
C       1.461846    1.679123   -0.762896
C       1.535023    2.940482   -1.604981
C       1.283723    4.305784   -0.981571
O       1.288433    4.323861    0.428748
C       2.653768    4.408290    0.808455
O       3.407908    3.770649   -0.210659
C       2.667770    3.937092   -1.396479
H      -0.581706    2.227551   -0.057535
H       2.395885    1.494868   -0.226175
H       1.299725    0.818741   -1.425180
H       1.201339    2.858146   -2.635837
H       0.664822    5.061035   -1.452453
H       2.956876    5.463840    0.905251
H       2.795963    3.872648    1.750069
H       3.212919    4.375267   -2.224607
