19

C      -0.155351    1.494674   -0.074721
N      -0.067059    0.062580    0.134743
C      -1.234598   -0.663272    0.669599
C      -0.272952   -1.604305    1.430687
C       0.833939   -0.551954    1.166104
C       2.178920   -1.004118    0.617040
C       1.024130    0.392978    2.349331
O       0.337759    0.415208    3.340313
H       0.824709    1.895014   -0.356026
H      -0.840612    1.686527   -0.907861
H      -0.525550    2.059933    0.798735
H      -1.851464   -0.060427    1.353052
H      -1.880493   -1.097864   -0.101016
H      -0.501385   -1.783553    2.480037
H      -0.082508   -2.545951    0.913565
H       2.027826   -1.606562   -0.281831
H       2.806648   -0.145914    0.349280
H       2.725708   -1.600556    1.356549
H       1.849234    1.131976    2.214932
