17

C      -0.085636    1.534905    0.626238
C       0.056774    0.071616    0.263121
C       0.421624   -0.407359   -1.109257
C       0.685697    0.522273   -2.275186
N       1.345504   -0.582523    0.015757
C       2.586245    0.173330    0.081775
H       0.524380    2.199740    0.012493
H      -1.129834    1.845316    0.510816
H       0.191182    1.701620    1.673396
H      -0.620668   -0.562670    0.836646
H      -0.018466   -1.353215   -1.428405
H       1.053825    1.505250   -1.976780
H       1.422079    0.084754   -2.958764
H      -0.238019    0.674857   -2.843954
H       2.546037    1.207281   -0.289405
H       2.921259    0.206795    1.123884
H       3.351215   -0.357559   -0.494699
