18

C       0.187340    1.576391    0.152818
C       0.026515    0.086845    0.053948
C       0.036766   -0.862399    1.237671
C       1.136716   -0.929565    0.221096
N       0.603668   -2.127870   -0.493529
C       0.024767   -1.518131   -1.776648
C      -0.903944   -0.593397   -0.969891
C      -1.739274   -1.494396   -0.340653
C      -0.677853   -2.031421    0.578819
H       0.929891    1.837008    0.914739
H       0.522181    2.006293   -0.798004
H      -0.755067    2.063634    0.426044
H       0.055133   -0.593372    2.285134
H       2.196883   -0.712649    0.286199
H       0.839776   -1.040066   -2.326759
H      -0.479391   -2.262605   -2.391354
H      -2.331077   -2.194280   -0.927597
H      -0.823926   -2.976230    1.097568
