18

C      -0.305369    1.436390    0.145150
C       0.061518   -0.025509   -0.002064
O       0.468949   -0.692672    0.933606
C      -0.073020   -0.625097   -1.341813
N      -0.016634   -2.104487   -1.474759
C       1.057663   -1.320247   -2.058829
C       0.606010   -0.704565   -3.409126
C      -0.826591   -1.037924   -3.735051
C      -0.535709    0.002709   -2.689044
H       0.285156    2.053843   -0.541033
H      -1.359308    1.590608   -0.113898
H      -0.129320    1.755507    1.172676
H       0.301599   -2.427781   -0.558153
H       2.080832   -1.406461   -1.714779
H       1.300294   -0.295049   -4.130159
H      -1.170554   -0.633072   -4.681654
H      -1.244977   -1.996128   -3.456471
H      -0.842647    1.035946   -2.780140
