16

C      -0.151955    1.577517    0.098837
C      -0.025183    0.089709    0.036920
C       0.015254   -0.689381   -1.080184
N      -0.016896   -0.338781   -2.433822
O       0.088920   -2.010310   -0.750544
C       0.101698   -2.077338    0.621971
C       0.041276   -0.824314    1.151083
N      -0.058376   -0.438538    2.497188
H       0.770211    2.064062    0.444516
H      -0.382483    1.975498   -0.892742
H      -0.950528    1.878729    0.786806
H       0.911471   -0.230432   -2.831832
H      -0.507683   -1.039226   -2.979353
H       0.119248   -3.065414    1.049688
H       0.206239   -1.176291    3.137369
H       0.488757    0.388223    2.703574
