18

C       0.112427    1.374291   -0.168330
N      -0.008536    0.032425    0.391960
C      -1.213346   -0.645752    0.162733
C      -1.361492   -1.960143   -0.156833
O      -0.443272   -2.905053   -0.460284
O      -2.684065   -2.304898   -0.226344
C      -3.400852   -1.174140    0.048994
C      -4.881373   -1.298661    0.032709
C      -2.555476   -0.135601    0.287540
H       1.107906    1.764501    0.059888
H      -0.042387    1.420984   -1.258320
H      -0.616152    2.040571    0.303539
H       0.773045   -0.551716    0.121981
H      -0.442748   -3.592405    0.218271
H      -5.234472   -2.033462    0.765866
H      -5.334997   -0.334228    0.272647
H      -5.251556   -1.615437   -0.949532
H      -2.848072    0.872676    0.535770
