18

C      -0.024672    1.648825   -0.214003
C       0.073359    0.148226    0.013535
C       0.697526   -0.787767   -1.073333
C       1.436184   -1.593544    0.052174
N       2.790310   -2.039816   -0.084432
C       3.115810   -3.359282   -0.206483
O       2.313571   -4.259091   -0.325547
C       1.187153   -0.364631    0.940148
O       1.828561    0.136940    1.819636
H       0.936694    2.059894   -0.538090
H      -0.770938    1.883563   -0.978968
H      -0.310089    2.160783    0.709613
H      -0.889575   -0.260013    0.344169
H       0.011358   -1.359024   -1.698324
H       1.408119   -0.246907   -1.704110
H       0.824629   -2.448083    0.357067
H       3.526228   -1.381001    0.122475
H       4.211421   -3.517505   -0.194589
