19

O       0.128374    1.385305    0.008464
C       0.065368   -0.023028   -0.021861
C      -1.369165   -0.559904    0.071039
C      -1.434995   -2.094565   -0.090470
C      -2.790597   -2.661371    0.232839
C      -3.696419   -2.021364    0.969010
C      -3.456809   -0.671243    1.590911
C      -2.056091   -0.124356    1.358295
O      -1.539509    0.638340    2.150096
H      -0.200661    1.632039    0.882799
H       0.508351   -0.341035   -0.972314
H       0.665572   -0.473602    0.785282
H      -1.962884   -0.114454   -0.741742
H      -1.151703   -2.356217   -1.117049
H      -0.673829   -2.565510    0.550161
H      -3.017044   -3.648835   -0.160715
H      -4.661686   -2.479953    1.166871
H      -4.165465    0.068588    1.185562
H      -3.638769   -0.681575    2.671786
