24

C      -2.079395    1.717324    3.615765
C      -2.146043    0.233539    3.333278
C      -1.661407   -0.322512    2.014833
C      -0.897907   -0.623072    3.282885
N       0.368891    0.031708    3.436751
C       1.220677   -0.230990    4.601754
C       0.828090   -1.164017    5.726928
C       1.623505   -0.701385    3.235770
C       1.673023   -2.159293    2.831855
H      -1.146686    2.140420    3.236983
H      -2.917195    2.242952    3.144137
H      -2.124476    1.918789    4.692290
H      -3.014164   -0.266579    3.756016
H      -2.216259   -1.122658    1.537003
H      -1.190448    0.376759    1.332098
H      -1.008906   -1.633486    3.674711
H       1.706921    0.674681    4.966566
H       0.428071   -2.119267    5.382907
H       1.701621   -1.377524    6.352304
H       0.070802   -0.698037    6.367185
H       2.372081   -0.101444    2.716436
H       0.993643   -2.793352    3.404369
H       1.417144   -2.271708    1.772666
H       2.687224   -2.549370    2.970004
