15

C      -0.001742    1.452245    0.011171
C       0.021061   -0.002641    0.022984
C       0.024578   -1.206963    0.037111
C       0.071524   -2.650915    0.026124
C       1.267805   -3.268206   -0.668883
C      -0.641271   -3.402414    1.080802
O      -1.186541   -3.311320   -0.230748
H       0.713215    1.855579   -0.714166
H      -0.995305    1.826653   -0.258612
H       0.252435    1.863665    0.994283
H       2.197832   -2.947949   -0.189578
H       1.203411   -4.358481   -0.632383
H       1.300542   -2.954682   -1.716359
H      -0.269985   -4.385299    1.371260
H      -1.179883   -2.856769    1.853459
