16

C       0.214632    0.984307    0.487837
O      -0.523439    0.254366   -0.490679
C      -1.220380   -0.792850   -0.027148
N      -1.899580   -1.494620   -0.826490
C      -2.650825   -2.641370   -0.345459
C      -2.213468   -3.905700   -1.107623
C      -2.574754   -2.871878    1.114662
N      -2.482847   -3.016294    2.258290
H       0.714934    1.790847   -0.048436
H      -0.447488    1.412567    1.248914
H       0.966739    0.351908    0.973116
H      -1.141804   -0.960286    1.055308
H      -3.708263   -2.456344   -0.577064
H      -2.304940   -3.715881   -2.178918
H      -1.170744   -4.142624   -0.882316
H      -2.837697   -4.760172   -0.834170
