19

C      -0.287557    1.451763   -0.191445
N      -0.217220   -0.002645   -0.145449
C       0.647820   -0.587703   -0.850660
C       0.777636   -2.115705   -0.852542
N       1.829086   -2.622455   -1.747063
C       3.059773   -1.777757   -1.502432
C       2.439820   -0.705575   -2.413785
C       1.686030   -1.881106   -3.057761
O       1.523897    0.098808   -1.656555
H       0.608878    1.911468    0.245124
H      -0.375572    1.832356   -1.217155
H      -1.155639    1.785840    0.381819
H       0.981362   -2.452592    0.168494
H      -0.183699   -2.549037   -1.144536
H       3.251736   -1.509251   -0.460248
H       3.939461   -2.261991   -1.934403
H       3.048626   -0.012353   -2.997549
H       2.256266   -2.388232   -3.840410
H       0.660802   -1.704558   -3.393726
