20

C      -0.062291    0.911042   -2.045856
C      -0.004864   -0.224193   -1.046834
C       1.271228   -0.631972   -0.307225
C       2.603495    0.059183   -0.500792
C       0.136861    0.019875    0.426284
C       0.163065    1.381622    1.131823
N      -0.618229    1.174708    2.365568
C      -0.987774   -0.036885    2.335700
O      -0.638156   -0.828460    1.295778
H       0.569414    1.755088   -1.755384
H       0.269495    0.578399   -3.035167
H      -1.085492    1.288485   -2.148654
H      -0.654071   -1.062073   -1.288185
H       1.347100   -1.701553   -0.128334
H       2.497607    1.138927   -0.637831
H       3.253950   -0.098187    0.366452
H       3.123474   -0.333604   -1.381024
H       1.177058    1.709736    1.387847
H      -0.293700    2.179700    0.535313
H      -1.585275   -0.531400    3.093583
