14

O       0.092428    0.042523    0.167755
C       0.005197    1.221847    0.005523
C      -1.131903    2.202393    0.034648
C      -0.112274    3.277310    0.399242
C       1.082995    2.372207   -0.004261
C       1.351422    2.718426   -1.459725
O       2.364947    2.567151   -2.083158
C       0.001372    3.240338   -1.987393
N      -0.877184    3.381757   -0.818939
H      -2.145779    2.031605    0.375590
H      -0.163774    4.010258    1.193114
H       1.955416    2.215211    0.623243
H       0.124849    4.221595   -2.455510
H      -0.415739    2.556594   -2.733134
