21

C       0.025275    1.364828   -0.384146
C       0.025626   -0.121285   -0.011636
C      -1.371382   -0.653189    0.238887
O      -2.269494   -0.510476   -0.906268
C      -2.646161   -1.906874   -0.859455
C      -4.134170   -2.122779   -0.854208
C      -1.714792   -2.769584   -1.733172
O      -0.767254   -2.911298   -0.642325
C      -1.611647   -2.174294    0.259377
H       1.040154    1.717881   -0.589418
H      -0.583483    1.534375   -1.276612
H      -0.386334    1.979853    0.423924
H       0.489032   -0.717422   -0.803571
H       0.619496   -0.286343    0.897242
H      -1.823864   -0.160894    1.113538
H      -4.568273   -1.762349   -1.793717
H      -4.377436   -3.184530   -0.749828
H      -4.603698   -1.570903   -0.035077
H      -2.119245   -3.745643   -2.031008
H      -1.290363   -2.255220   -2.601527
H      -1.768852   -2.686533    1.210826
