21

C       0.026346    1.274611   -0.316947
O      -0.043000   -0.023796    0.242012
C      -1.314083   -0.588053    0.196532
C      -1.800725   -1.166132   -1.110945
C      -1.440235   -2.092137    0.052373
C      -0.252992   -3.017931   -0.057263
C      -2.607732   -2.447397    0.919242
C      -3.122235   -1.381068    1.535906
C      -2.358963   -0.114577    1.212320
H       1.071846    1.588193   -0.268245
H      -0.303959    1.281495   -1.365391
H      -0.585044    1.995700    0.244407
H      -2.842722   -1.063425   -1.397249
H      -1.089074   -1.132559   -1.930708
H       0.575412   -2.519376   -0.566788
H       0.101131   -3.323280    0.933313
H      -0.505427   -3.924850   -0.618450
H      -2.979257   -3.463361    1.001637
H      -3.989949   -1.387577    2.185618
H      -1.859142    0.297851    2.099703
H      -3.012295    0.674715    0.819755
