16

O      -1.071454    2.338817   -0.267429
C      -0.258995    1.317207    0.255006
C      -1.049635    0.029705    0.531144
O      -2.041341    0.415766    1.498282
C      -2.860642   -0.625916    1.974247
C      -2.122409   -1.581611    2.822488
N      -1.529352   -2.326411    3.476870
C      -1.659394   -0.537643   -0.672241
C      -2.157005   -1.024037   -1.652009
H      -1.805263    2.450969    0.347542
H       0.519476    1.108490   -0.483802
H       0.225785    1.613249    1.197640
H      -0.371833   -0.711443    0.981503
H      -3.649012   -0.157826    2.570273
H      -3.331945   -1.178014    1.149914
H      -2.588832   -1.443756   -2.527502
