23

C       0.024877    1.559560   -0.175999
C       0.026062    0.060369    0.130261
O       0.601457   -0.209476    1.400608
C      -1.385057   -0.544115    0.065843
C      -1.443458   -2.068067    0.193428
C      -2.794812   -2.300107    0.886918
C      -2.948663   -3.646139    1.590687
C      -2.851003   -1.087771    1.828406
O      -2.124736   -0.033815    1.192359
H       1.032598    1.966455   -0.059595
H      -0.313810    1.753197   -1.199718
H      -0.646918    2.086608    0.509084
H       0.656652   -0.461552   -0.600424
H      -0.058427    0.092810    2.038834
H      -1.881214   -0.213196   -0.859555
H      -1.362074   -2.571677   -0.773415
H      -0.622120   -2.408665    0.834028
H      -3.592511   -2.192950    0.140065
H      -2.155950   -3.791972    2.333184
H      -3.911276   -3.719634    2.108283
H      -2.894185   -4.473574    0.876319
H      -3.872475   -0.743228    2.025261
H      -2.381964   -1.328117    2.795095
