22

C      -0.077113    1.518049    0.060412
C      -0.090748   -0.013916   -0.008902
C      -1.482342   -0.578939   -0.088692
C      -2.579418   -0.305069   -1.126065
C      -3.242724   -1.175196   -0.054155
C      -4.684763   -1.567505    0.075127
C      -1.961732   -2.043738    0.178736
C      -2.039605   -1.732950    1.666919
N      -2.503443   -0.401297    1.085821
H       0.944488    1.897393    0.156205
H      -0.514930    1.959600   -0.840679
H      -0.658304    1.867177    0.918537
H       0.475016   -0.359255   -0.884329
H       0.419185   -0.430476    0.868838
H      -2.938204    0.726494   -1.196195
H      -2.446213   -0.754317   -2.114830
H      -4.998273   -2.166782   -0.786514
H      -4.863207   -2.157453    0.979993
H      -5.319638   -0.676671    0.120091
H      -1.662455   -2.956339   -0.350590
H      -2.803120   -2.239795    2.265767
H      -1.106695   -1.663514    2.234897
