19

C       0.403979    1.527295    0.109877
C       0.179653    0.048194   -0.024661
C      -0.120574   -0.599093   -1.166838
C      -0.324497    0.026003   -2.521699
C      -0.158587   -2.092485   -1.195500
O      -0.135776   -2.720468   -2.224678
O      -0.169370   -2.768380   -0.016821
C      -0.459914   -2.031215    1.173687
C       0.349950   -0.750192    1.246774
H       1.367874    1.715663    0.599833
H       0.400053    2.057744   -0.841763
H      -0.361416    1.975016    0.756960
H       0.474694   -0.272052   -3.207565
H      -1.255981   -0.335566   -2.967855
H      -0.364338    1.114660   -2.479534
H      -1.533359   -1.799470    1.197225
H      -0.236785   -2.709183    2.000541
H       1.413964   -0.974418    1.409457
H       0.022395   -0.163300    2.113215
