13

O      -0.121290    1.452413   -0.041072
C      -0.040936    0.047951   -0.078607
C      -1.434187   -0.576572   -0.017562
O      -2.112621   -0.096823    1.142014
C      -3.115870    0.742586    0.766483
O      -3.797151    1.364754    1.515487
C      -3.175102    0.683188   -0.763897
O      -3.927298    1.240538   -1.495355
O      -2.201112   -0.179822   -1.147195
H      -0.262196    1.724055    0.871986
H       0.419484   -0.233594   -1.030273
H       0.565423   -0.369044    0.736747
H      -1.401631   -1.669688    0.018204
