16

O       0.097760    1.332255    0.211992
C       0.054921   -0.026405   -0.186687
C      -1.362644   -0.582108   -0.085509
C      -1.568209   -2.101602   -0.045490
O      -0.918391   -2.589851    1.144218
C      -2.243865   -2.046285    1.262020
C      -2.040218   -0.526822    1.349238
O      -1.247664   -0.072062    2.423596
H      -0.187437    1.342396    1.135127
H       0.406982   -0.062644   -1.223356
H       0.739551   -0.647750    0.409464
H      -2.015237   -0.103588   -0.821588
H      -1.691299   -2.809556   -0.856258
H      -3.001233   -2.681235    1.706670
H      -2.964339    0.053512    1.357823
H      -0.565077   -0.744765    2.551428
