19

O      -0.018853    1.402339   -0.037688
C       0.004941    0.019405   -0.021131
C      -1.170918   -0.940385    0.080844
C      -0.662409   -1.743564   -1.114779
C       0.648073   -0.874233   -1.099905
O       1.860466   -1.495103   -0.716707
C       1.710834   -2.408928    0.361742
C       0.956767   -1.827234    1.575707
C      -0.132506   -0.831004    1.200706
H       0.768378    1.725394    0.414468
H      -2.207729   -0.705157    0.288567
H      -0.561748   -2.825561   -1.007103
H      -1.243141   -1.539375   -2.017944
H       0.848071   -0.360866   -2.041539
H       1.212186   -3.322487    0.010422
H       2.726962   -2.691441    0.650455
H       0.554868   -2.654769    2.173103
H       1.670817   -1.297780    2.219191
H      -0.539829   -0.279829    2.045812
