20

C      -0.205407    1.564029    0.001800
C       0.044117    0.056526    0.019876
C       0.865316   -0.536446   -1.128570
C       2.386260   -0.468587   -0.679768
C       2.350240    0.118536    0.743589
C       0.989697   -0.519011    1.114859
C       1.173364   -1.972236    0.596499
C       2.246303   -1.978820   -0.433689
N       0.818922   -2.028535   -0.864799
H       0.701930    2.144606   -0.185192
H      -0.920899    1.819735   -0.786765
H      -0.628863    1.903913    0.953174
H      -0.919661   -0.464552    0.056900
H       0.604003   -0.276201   -2.153206
H       3.130939   -0.105566   -1.384261
H       3.173625   -0.266262    1.353936
H       2.357088    1.210143    0.796822
H       0.659589   -0.428381    2.149450
H       0.907989   -2.847230    1.176160
H       2.951165   -2.779381   -0.630816
