11

N       0.001940    1.325753   -0.023865
C      -0.004967   -0.020552    0.017476
N      -1.127196   -0.674804    0.089801
O      -1.017179   -2.061918    0.169821
N       0.194462   -2.730920    0.172963
N       1.264582   -2.101981    0.086821
C       1.291306   -0.697306   -0.013123
N       2.369631   -0.029217   -0.129456
H       0.883609    1.772997   -0.215954
H      -0.862939    1.829870   -0.122752
H       3.173781   -0.661203   -0.139632
