16

N      -0.323686    1.177280   -0.164689
C      -0.155583   -0.054043   -0.017985
O       1.029623   -0.797952    0.069589
C       0.255736   -2.031613    0.040407
C      -0.600756   -2.108863    1.247727
C      -1.044086   -1.249601    0.053571
C       0.754569   -3.129738   -0.817753
C       1.374752   -4.333076   -0.242040
O       0.026709   -4.352116   -0.717149
H       0.569092    1.671572   -0.205282
H      -1.170158   -3.026700    1.351776
H      -0.278833   -1.637752    2.170890
H      -1.978198   -1.400897   -0.466142
H       1.028128   -2.834156   -1.830506
H       2.086191   -4.902562   -0.836871
H       1.488825   -4.407611    0.837517
