19

C       0.180414    1.461274   -0.016060
O       1.107823    0.403682   -0.273494
C      -0.258718    0.062990   -0.031583
C      -0.513595   -0.696440    1.247321
O      -1.901979   -0.577356    1.562035
C      -2.281908   -1.691160    2.369297
C      -1.393671   -2.840043    1.927078
C      -1.259670   -3.023285    0.438446
C      -0.246461   -2.193418    1.188605
H       0.307451    1.971873    0.937623
H      -0.041467    2.105785   -0.864919
H      -0.799203   -0.305181   -0.903551
H       0.110947   -0.251608    2.040343
H      -2.121517   -1.476338    3.437989
H      -3.352437   -1.855956    2.207314
H      -1.245450   -3.678066    2.597471
H      -0.934232   -3.993465    0.080925
H      -1.973331   -2.519173   -0.206029
H       0.775056   -2.538867    1.285523
