19

C       0.198478    1.651462    0.013065
C      -0.041665    0.136536    0.068600
C      -0.000465   -0.452334   -1.344954
O      -0.264917   -1.839899   -1.398579
C       0.753636   -2.671590   -0.890313
C       0.661415   -2.911922    0.621949
O       0.587794   -4.013968    1.091493
O       0.639964   -1.836946    1.444810
C       0.987608   -0.520916    0.992070
H       1.204129    1.882612   -0.357405
H      -0.519346    2.137227   -0.654728
H       0.095053    2.105447    1.002938
H      -1.034189   -0.059388    0.492670
H      -0.767675    0.017493   -1.968177
H       0.981088   -0.236520   -1.803705
H       0.636453   -3.652689   -1.352989
H       1.753321   -2.284290   -1.149066
H       1.979700   -0.535696    0.519920
H       1.075086    0.053525    1.917353
