16

C       0.022117    1.462180    0.057242
C      -0.069623   -0.030774   -0.117319
C       0.827079   -0.778477   -1.142566
N       0.533337   -2.229178   -0.876897
C      -0.524969   -2.137536   -0.190061
O      -0.545142   -2.372606    1.196916
C      -0.690483   -0.885330    1.201120
C      -1.338078   -0.777678   -0.100217
O      -2.564745   -0.402883   -0.581370
H       1.016385    1.758813    0.406992
H      -0.163144    1.970306   -0.896125
H      -0.718583    1.833646    0.771731
H       0.639258   -0.428629   -2.169529
H       1.897085   -0.668044   -0.937896
H      -0.816306   -0.432828    2.177564
H      -3.242089   -0.954528   -0.171885
