15

C      -0.177438    1.434886   -0.103468
C       0.011073   -0.033997    0.220950
N       0.222473   -0.546391    1.364194
N      -0.083277   -0.828212   -0.921220
C       0.036540   -2.194431   -1.042136
N       0.234164   -2.741501   -2.243299
N       0.239284   -4.031997   -1.919726
N       0.069756   -4.283814   -0.636845
N      -0.067772   -3.119157   -0.051087
H       0.570757    1.778086   -0.827548
H      -1.166380    1.615206   -0.539159
H      -0.080756    2.037534    0.800247
H       0.244812    0.181926    2.075013
H      -0.103344   -0.351639   -1.808103
H       0.370926   -4.763075   -2.601734
