19

C      -0.976115    0.985921   -0.077277
C       0.090836   -0.089828    0.030805
C       1.408629    0.072959   -0.777371
C       2.190896   -0.516841    0.434149
N       2.332606   -1.961930    0.306267
C       3.423374    0.168305    0.838782
N       4.392059    0.680870    1.211469
C       0.938876   -0.169971    1.331603
O       1.015899    1.096841    1.929807
H      -0.570630    1.967432    0.179102
H      -1.371322    1.029574   -1.097921
H      -1.814737    0.782168    0.596700
H      -0.333220   -1.077496   -0.164327
H       1.511795   -0.481830   -1.712175
H       1.659684    1.122152   -0.943047
H       2.981395   -2.186718   -0.442853
H       2.719281   -2.357431    1.159167
H       0.681207   -0.957612    2.052635
H       1.760045    1.110109    2.542899
