17

C      -0.021761    1.414255   -0.136115
C      -0.089154   -0.070294    0.111255
C      -0.786485   -0.619396    1.313180
C       0.741105   -0.721786    1.199565
C       1.333194   -2.023959    0.862910
C       1.048751   -2.638826   -0.290463
C       0.217908   -2.020380   -1.338747
O      -0.044814   -2.553514   -2.385711
O      -0.229979   -0.746045   -1.123503
H       0.845461    1.662651   -0.754996
H      -0.922468    1.751506   -0.657833
H       0.055689    1.958709    0.808710
H      -1.190188    0.082914    2.034034
H      -1.340378   -1.544991    1.203878
H       1.322864   -0.075385    1.848577
H       2.011204   -2.481067    1.578914
H       1.450972   -3.609342   -0.552431
