18

C      -0.097338   -1.180077   -0.064433
C      -0.037384    0.020201   -0.015987
C       0.039207    1.453167   -0.003056
N       0.625646    2.099651    1.210805
C       1.345150    2.179320   -0.046384
C       2.779938    1.642859   -0.200346
C       3.125252    2.926826   -0.976557
C       2.228217    3.074380   -2.170252
C       1.688849    3.441301   -0.810161
H      -0.151367   -2.240012   -0.093058
H      -0.800572    1.961531   -0.473232
H       0.128137    2.970005    1.391797
H       3.271877    1.574499    0.772207
H       2.903548    0.697670   -0.737414
H       4.048724    3.483299   -0.880519
H       2.446194    3.916235   -2.819993
H       1.850542    2.196006   -2.688359
H       1.332978    4.437563   -0.572357
