15

O      -0.792290    0.754071   -0.524884
C       0.228520    0.789313    0.109602
C       1.285944    1.867663   -0.077001
N       2.614462    1.211810   -0.150915
C       3.214186    1.848262   -1.080395
C       3.324764    1.251405   -2.465903
C       2.100477    2.229390   -2.632430
C       1.254540    2.631280   -1.407709
N       2.621856    3.136099   -1.563908
H       0.470256    0.042158    0.894142
H       1.171554    2.574849    0.764396
H       4.129044    1.610944   -3.112311
H       3.199451    0.171500   -2.522193
H       1.840190    2.644537   -3.604541
H       0.445812    3.326785   -1.612716
