21

C      -0.141490    1.543873   -0.074673
C      -0.020886    0.034934   -0.019096
C       1.337869   -0.633093   -0.223655
O       2.427135    0.223251   -0.450760
C       0.675305   -0.655848    1.111073
C       1.154491   -0.167868    2.493839
C      -0.215384   -0.673849    3.045585
C       0.280413   -1.792111    2.077523
C       1.689801   -1.616925    2.721107
H       0.766404    2.020054    0.300768
H      -0.292369    1.886746   -1.103914
H      -0.989673    1.894954    0.522951
H      -0.854624   -0.503154   -0.467060
H       1.354853   -1.548132   -0.818618
H       3.171114   -0.100302    0.066909
H       1.657778    0.769666    2.731054
H      -0.243939   -0.930030    4.108687
H      -1.103561   -0.117491    2.738537
H      -0.223993   -2.727084    1.829578
H       2.546736   -1.930211    2.118440
H       1.792317   -1.937919    3.761752
