16

C       0.119699   -1.017650   -0.465547
C       0.113877    0.134233   -0.123803
C       0.111492    1.535194    0.294148
N       1.449791    2.137202    0.217331
C       1.794699    2.665396   -0.870664
C       3.131163    3.311145   -1.169852
O       2.884610    4.046331   -2.361015
C       1.846986    3.371421   -3.015617
O       1.037324    2.770029   -2.002713
H       0.121249   -2.035856   -0.766207
H      -0.620446    2.088841   -0.309837
H      -0.215464    1.595965    1.338071
H       3.451931    3.993115   -0.381595
H       3.904095    2.541471   -1.316720
H       1.245103    4.087635   -3.580296
H       2.223970    2.574098   -3.676058
