21

C      -0.037314    1.540999   -0.180706
C       1.423440    2.102386   -0.011446
C       2.287143    0.847548   -0.170905
C       3.243413    0.212374    0.869216
C       2.117929    0.061825    1.939038
C       2.408351   -1.433970    2.161816
C       2.614347   -1.231398    0.649010
C       1.434931   -0.200959    0.532429
C      -0.024407    0.006437    0.193955
H      -0.749807    2.099789    0.432246
H      -0.361186    1.658979   -1.219283
H       1.636624    2.894137   -0.734549
H       1.542664    2.536005    0.986592
H       2.529021    0.629971   -1.218957
H       4.298925    0.408499    1.070957
H       1.819375    0.811469    2.673037
H       3.300041   -1.674663    2.750132
H       1.567459   -2.066060    2.465257
H       2.920347   -1.951435   -0.112478
H      -0.703696   -0.224674    1.019781
H      -0.334970   -0.599963   -0.663219
