23

C       0.027755    1.495586   -0.021932
C       1.330870    0.730587    0.038743
C       0.026389   -0.006155    0.031992
C      -0.611516   -0.849081    1.142935
C      -1.473499   -1.542277    0.048028
C      -0.544509   -0.936253   -1.046148
C      -1.135872   -0.492620   -2.406234
C      -0.583146   -1.799327   -3.037795
C       0.362633   -1.939484   -1.815406
H      -0.291514    2.037628    0.863098
H      -0.234560    1.979150   -0.957983
H       1.943395    0.699634   -0.857773
H       1.900397    0.755747    0.962760
H       0.098096   -1.534490    1.617312
H      -1.150940   -0.310488    1.926963
H      -1.542309   -2.632825    0.086106
H      -2.485333   -1.129133   -0.001265
H      -2.214466   -0.314971   -2.447152
H      -0.625397    0.392747   -2.801236
H      -1.338168   -2.589866   -3.063022
H      -0.123967   -1.728844   -4.026545
H       1.350740   -1.512459   -2.015731
H       0.497052   -2.933729   -1.379513
