20

C       0.109014    1.289546   -0.171285
O      -0.085833   -0.131668   -0.204598
C      -1.339364   -0.547315    0.024385
O      -2.258327    0.193287    0.278173
C      -1.449604   -2.067984   -0.048816
N      -2.854119   -2.442912    0.118727
C      -0.947631   -2.589227   -1.423333
C      -0.820578   -4.114029   -1.436282
O      -1.832890   -2.129608   -2.426209
H       1.166004    1.447855   -0.383782
H      -0.512064    1.777350   -0.925988
H      -0.149328    1.689233    0.812428
H      -0.797124   -2.469221    0.740357
H      -2.960941   -3.204688    0.775617
H      -3.366268   -1.638825    0.469608
H       0.025686   -2.137720   -1.634934
H      -0.532161   -4.449376   -2.435801
H      -0.064383   -4.459639   -0.722197
H      -1.777817   -4.582748   -1.184555
H      -2.716208   -2.309481   -2.066731
