15

O       0.121830    1.393908   -0.117575
C       0.063246    0.069628    0.342117
C      -1.344676   -0.518058    0.101201
N      -1.713479   -0.432486   -1.349994
C      -1.899012   -1.906881   -1.485355
C      -1.398016   -2.078823   -0.048253
O      -1.118213   -2.986557    0.664129
C      -2.345966    0.023818    1.009700
N      -3.169219    0.435312    1.710179
H      -0.103991    1.361710   -1.056607
H       0.792473   -0.578844   -0.166230
H       0.292626    0.073506    1.410488
H      -2.563545    0.095551   -1.510476
H      -2.935990   -2.243437   -1.607073
H      -1.284154   -2.368978   -2.263996
