15

O       0.573052    0.603936   -0.828888
C      -0.113475    0.266251    0.354897
C      -1.465673   -0.353033    0.103671
C      -1.939744   -0.753549   -1.097464
C      -3.247503   -1.324576   -1.144264
C      -3.986837   -1.461597   -0.015595
C      -3.480349   -1.039003    1.272310
O      -4.018024   -1.102512    2.343157
O      -2.179733   -0.475815    1.235082
H       0.120342    1.351573   -1.233136
H       0.516352   -0.457314    0.886374
H      -0.243483    1.122997    1.032904
H      -1.319325   -0.650969   -1.975776
H      -3.649277   -1.652494   -2.098304
H      -4.981393   -1.888288   -0.013375
