10

N      -0.239446    1.313533    0.011625
C      -0.027200    0.076822    0.002639
O      -1.127907   -0.757249    0.007799
C      -0.914490   -2.104909   -0.001429
O       0.147737   -2.653063   -0.013840
C      -2.280832   -2.809298    0.006729
O      -2.365290   -4.003021    0.000821
H       0.644903    1.820348    0.006545
H       0.915801   -0.469339   -0.008970
H      -3.151419   -2.125669    0.018180
