19

O       0.563099   -0.104717   -0.752910
C      -0.240541    0.401613    0.304878
C      -1.597777   -0.222720    0.206119
C      -2.712806   -0.147738    1.249429
C      -3.368877   -1.313394    0.449723
O      -4.153696   -2.274091    1.067798
C      -3.767275   -0.660940   -0.906324
C      -2.262790   -0.536931   -1.144789
C      -1.949796   -1.643530   -0.161117
H       1.424141    0.319803   -0.705042
H       0.202158    0.165928    1.287239
H      -0.329225    1.499915    0.244540
H      -2.365492   -0.498425    2.226071
H      -3.280019    0.785497    1.361146
H      -4.990873   -1.867329    1.318845
H      -4.213715   -1.401608   -1.575940
H      -4.385724    0.245194   -0.877940
H      -1.740995   -0.330747   -2.068518
H      -1.362931   -2.545592   -0.242701
