25

C       0.076978    1.582941    0.175332
C       0.028585    0.062733    0.011701
C      -1.394778   -0.500182   -0.048676
C      -1.395600   -2.029014   -0.222887
C      -2.673470   -2.660340   -0.817705
C      -4.010957   -1.972128   -0.477429
C      -4.144211   -1.434862    0.955726
C      -3.436600   -0.092826    1.179797
O      -2.025383   -0.136789    1.179094
H       1.109452    1.939909    0.240108
H      -0.396226    2.087218   -0.675282
H      -0.451203    1.887404    1.081777
H       0.553679   -0.234798   -0.903789
H       0.552378   -0.420942    0.846168
H      -1.928355   -0.017045   -0.886115
H      -0.543640   -2.322068   -0.847555
H      -1.199843   -2.441704    0.773415
H      -2.585079   -2.697851   -1.910224
H      -2.715084   -3.706353   -0.490796
H      -4.179758   -1.135610   -1.168648
H      -4.819637   -2.684350   -0.678070
H      -5.207031   -1.274035    1.178788
H      -3.779623   -2.167269    1.686796
H      -3.793954    0.626955    0.421855
H      -3.707056    0.306753    2.163184
