18

C      -0.166925    1.548960    1.069572
C      -0.132440    0.308446    0.139613
C       0.862919   -0.656876    0.612248
C       1.659062   -1.448292    1.044338
C      -1.493778   -0.328028   -0.007209
C      -2.572496    0.030131   -0.787621
C      -3.634480   -0.869835   -0.493138
C      -3.172588   -1.751845    0.455875
N      -1.877290   -1.407929    0.747054
H       0.820030    2.016808    1.126851
H      -0.885356    2.277070    0.685133
H      -0.474092    1.260554    2.078273
H       0.176512    0.650905   -0.856487
H       2.383006   -2.139905    1.398687
H      -2.594916    0.850012   -1.490092
H      -4.620804   -0.870512   -0.931138
H      -3.645596   -2.592695    0.936850
H      -1.252032   -1.908075    1.356982
