15

C      -0.056102    1.386560    0.007718
O      -0.026973   -0.041129    0.003228
C      -1.214872   -0.653366    0.010611
N      -2.369161   -0.005352    0.021635
N      -3.295446   -1.007962    0.025720
C      -2.759799   -2.235475    0.017785
C      -1.379860   -2.071809    0.007490
C      -0.367014   -3.114846   -0.003681
O      -0.609072   -4.304882   -0.004967
H       0.986778    1.704706    0.000404
H      -0.576603    1.767344   -0.876476
H      -0.562495    1.762035    0.902316
H      -4.269611   -0.758407    0.034037
H      -3.353618   -3.135530    0.019635
H       0.678060   -2.740554   -0.010214
