13

N       0.054475    1.380969    0.113854
C      -0.026766    0.023036    0.041327
C      -1.116341   -0.813026    0.012513
N      -2.464121   -0.389599   -0.032128
C      -0.506319   -2.101958    0.011866
N       0.813223   -2.056519    0.027863
O       1.107994   -0.684465    0.059750
C      -1.190038   -3.351184   -0.021832
N      -1.809138   -4.327607   -0.050494
H       0.893708    1.795728   -0.263747
H      -0.802583    1.843978   -0.155859
H      -2.941263   -0.527489    0.853752
H      -2.994145   -0.885769   -0.740886
