14

O      -0.079574    1.372784   -0.044596
C      -0.061227   -0.017577    0.039383
C      -0.532836   -0.698394    1.310097
C      -0.912391    0.099782    2.502817
O      -0.770541   -0.303348    3.631830
C      -1.397146   -0.690095    0.014063
C      -2.657867    0.100581   -0.077196
O      -3.658866   -0.340995   -0.584852
H       0.714741    1.716001    0.379016
H       0.746245   -0.508561   -0.502477
H      -0.094547   -1.659184    1.558351
H      -1.315972    1.112406    2.301373
H      -1.466610   -1.650359   -0.484756
H      -2.621821    1.128394    0.330873
