15

N      -0.082375    1.287653    0.478825
C      -0.140833    0.115846    0.008975
N      -1.335138   -0.575904   -0.221888
C      -2.639617   -0.135619   -0.055712
O      -2.972636    0.975783    0.263581
C      -3.678279   -1.253169   -0.270309
O      -4.917020   -0.720297   -0.685058
C      -5.662724   -0.085898    0.258450
O      -6.688995    0.453726   -0.012415
H       0.890199    1.580666    0.558445
H       0.717007   -0.508152   -0.271978
H      -1.221082   -1.516851   -0.565319
H      -3.371604   -1.957889   -1.047905
H      -3.774755   -1.812384    0.672015
H      -5.231043   -0.161332    1.271438
