21

C      -0.067730    1.769700    0.397395
C      -0.074673    0.268377    0.073782
C       0.725610   -0.568208    1.090504
N       2.140358   -0.209063    1.091517
C       2.600069    0.671659    2.163562
C       2.934403   -0.776990    2.176737
C      -1.516889   -0.243658    0.076348
N      -1.947757   -0.798033   -1.093775
O      -2.227334   -0.172759    1.062544
H       0.953893    2.154958    0.420299
H      -0.625997    2.334031   -0.356471
H      -0.541389    1.947016    1.366943
H       0.380014    0.112570   -0.911791
H       0.257236   -0.465199    2.083386
H       0.656289   -1.626507    0.809796
H       3.346864    1.409285    1.883415
H       1.865973    1.018313    2.888815
H       2.422765   -1.396453    2.911919
H       3.929009   -1.119714    1.905621
H      -1.375924   -0.828776   -1.918574
H      -2.895711   -1.134653   -1.143778
