21

C       0.212269    1.547517   -0.321495
C       0.038343    0.067536   -0.060152
C       1.213906   -0.871468   -0.123820
C       0.554733   -0.593376    1.208940
C       1.218101    0.177168    2.293483
C       2.643773    0.705426    2.301473
C       2.194389   -0.220480    3.386516
O       1.487524    0.490632    4.403029
C       0.464758    0.860959    3.439871
H       1.166266    1.914922    0.066130
H       0.185832    1.759099   -1.396243
H      -0.585665    2.132460    0.149999
H      -0.901979   -0.337420   -0.425898
H       1.084447   -1.854170   -0.563935
H       2.188262   -0.430346   -0.306796
H      -0.078809   -1.395257    1.583310
H       3.295347    0.261906    1.555446
H       2.854349    1.745200    2.540558
H       2.661895   -1.162306    3.650828
H       0.316649    1.946256    3.380640
H      -0.485834    0.371201    3.683142
