16

C       0.142995    1.040933   -0.358869
O       0.045055   -0.281475    0.158246
C      -1.145343   -0.881541   -0.011789
N      -1.323729   -2.059627    0.403511
C      -2.612459   -2.650026    0.121203
C      -2.720448   -3.085869   -1.353491
N      -3.289158   -4.308514   -1.552772
O      -2.376588   -2.358822   -2.263048
H       1.151471    1.386250   -0.128513
H      -0.004339    1.056046   -1.444987
H      -0.582918    1.712801    0.115175
H      -1.901279   -0.266695   -0.517603
H      -2.770078   -3.500082    0.792591
H      -3.452946   -1.954813    0.282851
H      -3.405419   -4.963960   -0.800021
H      -3.343773   -4.653875   -2.497796
