18

C       0.279912    1.367627    0.358068
N      -0.298035    0.167700   -0.255018
C       0.513631   -0.453548   -1.224841
C       0.631979    0.112864   -2.659264
C       1.919732    0.505499   -3.347361
C       0.178750   -1.286476   -2.454371
O       1.326973   -2.149339   -2.228304
C       1.610227   -1.485550   -1.033941
O       2.406878   -1.795683   -0.208930
H       1.240585    1.191335    0.863354
H       0.434602    2.127021   -0.414622
H      -0.429052    1.770091    1.086629
H      -0.573227   -0.495807    0.460853
H      -0.206053    0.789306   -2.823639
H       2.690584   -0.256793   -3.217030
H       1.749779    0.628955   -4.421964
H       2.299933    1.453775   -2.955679
H      -0.742266   -1.762583   -2.759090
