19

C      -0.201337    1.422042    0.077297
C       0.024292   -0.055031    0.052364
O      -1.141857   -0.882029   -0.014781
C      -0.575839   -1.806274    0.961300
C      -0.706127   -3.250320    0.509906
O      -2.074609   -3.596249    0.376527
C       0.756609   -1.061368    0.968684
C       1.231034   -0.770176   -0.442421
O       1.161727   -1.657113   -1.517325
H       0.746295    1.957756    0.180591
H      -0.675010    1.745280   -0.856655
H      -0.858187    1.703810    0.905761
H      -1.111969   -1.676579    1.910349
H      -0.159479   -3.396940   -0.428413
H      -0.283934   -3.914978    1.272621
H      -2.443812   -2.982869   -0.269649
H       1.378350   -0.907337    1.841735
H       2.116079   -0.129630   -0.440059
H       1.851967   -2.319106   -1.400797
