12

N      -0.066652    1.326217    0.008245
C       0.065454   -0.016619    0.002918
O       1.114021   -0.633341   -0.007626
C      -1.249605   -0.763752    0.011150
C      -1.275821   -2.156798    0.006933
N      -2.434965   -2.796427    0.014282
N      -3.557018   -2.072310    0.025651
N      -3.536067   -0.760632    0.029646
N      -2.387225   -0.086189    0.022487
H       0.759611    1.900387    0.003259
H      -0.983717    1.743952    0.016914
H      -0.363155   -2.742279   -0.002309
