16

C      -0.513250    1.266454   -0.017532
N       0.020115   -0.089085    0.050940
C       1.410705   -0.284589   -0.308164
C       0.980101   -0.444400    1.115014
C       1.422081    0.507489    2.153947
N       1.998723    1.661776    1.918271
O       2.203213    2.197587    3.195952
C       1.735670    1.291349    4.054055
N       1.242346    0.232746    3.499727
H       0.210577    2.051144    0.242231
H      -0.861738    1.437857   -1.040444
H      -1.374142    1.346406    0.653468
H       1.636501   -1.169507   -0.897534
H       2.012974    0.593465   -0.535047
H       0.821509   -1.438189    1.522159
H       1.813254    1.523886    5.106115
