19

O       0.010372    1.443375    0.138969
C       0.014522    0.065730    0.053147
C      -0.887069   -0.740210   -0.880790
O      -1.088402   -1.750265    0.147503
C      -0.346199   -0.968824    1.090854
C       1.092704   -0.825101    0.651513
C       1.846736   -1.893977   -0.072271
C       3.209557   -1.615395   -0.661307
C       3.078302   -2.505514    0.549680
H       0.789238    1.778798   -0.318114
H      -1.826609   -0.220752   -1.099281
H      -0.458412   -1.154414   -1.800531
H      -0.711148   -0.916122    2.109848
H       1.671709   -0.262501    1.384128
H       1.210848   -2.576846   -0.625463
H       3.464306   -2.069269   -1.612931
H       3.633954   -0.626838   -0.516120
H       3.410921   -2.112256    1.505037
H       3.240110   -3.570950    0.429888
