17

C      -0.220950    1.542077    0.033296
C       0.040509    0.052193   -0.058036
N       0.712572   -0.472876   -1.301218
C       2.090534    0.047325   -1.311686
C       1.788691   -1.090913   -0.425421
C       1.152121   -0.589128    0.868532
O       2.003736    0.266567    1.597254
C       0.623005   -1.653251    1.729156
N       0.191234   -2.458080    2.437895
H       0.699164    2.128726    0.072189
H      -0.804949    1.864413   -0.834393
H      -0.802022    1.770789    0.932894
H      -0.894536   -0.502278    0.048755
H       2.610652   -0.183869   -2.235685
H       2.322307    1.018095   -0.887953
H       2.158188   -2.097747   -0.578673
H       1.565525    0.517759    2.418840
