16

O       0.371665    1.542449    0.046471
C       0.097489    0.172043   -0.029575
C       0.402669   -0.398260   -1.346758
C       0.655541   -0.872898   -2.421143
C       0.889183   -0.587347    1.057176
O       1.616820    0.044991    1.796750
C       0.712933   -2.055452    1.169914
C       1.966513   -2.865645    1.335821
N       1.060263   -2.684059    2.456556
H       1.055591    1.624283    0.732414
H      -0.971070   -0.006978    0.184486
H       0.874823   -1.280939   -3.377166
H      -0.128635   -2.489392    0.640493
H       1.990411   -3.862298    0.905774
H       2.906208   -2.321050    1.326492
H       1.428200   -1.949655    3.061880
