21

C       0.113690    1.573946   -0.156400
C       0.062346    0.042827   -0.071607
C      -1.351269   -0.527023    0.037189
O      -2.192904   -0.074665   -1.016489
C      -1.517805   -2.046450    0.107741
C      -0.920520   -2.611982    1.362723
C      -2.263963   -1.943188    1.441915
C      -2.100403   -0.431211    1.438976
O      -1.414637    0.062488    2.572018
H       1.147912    1.928126   -0.190390
H      -0.381346    1.947775   -1.059454
H      -0.360623    2.046415    0.711661
H       0.537494   -0.387379   -0.961606
H       0.643893   -0.285930    0.794366
H      -2.248555    0.885381   -0.966087
H      -1.760486   -2.650251   -0.757475
H      -0.948051   -3.694709    1.431588
H      -0.053368   -2.162512    1.835229
H      -3.148880   -2.471784    1.773103
H      -3.057995    0.082305    1.284023
H      -1.461772    1.023173    2.565303
