19

O       0.143787   -0.011916    0.215865
C       0.029568    1.189597    0.066599
N      -1.183037    1.818612    0.004237
C      -1.366828    3.260429   -0.108042
C      -0.941552    4.043257    1.151771
C       0.360388    3.502232    1.754687
N       1.381499    3.322583    0.720706
C       2.283106    2.182705    0.912844
C       1.218170    2.121868   -0.115227
H      -1.983014    1.219520    0.142384
H      -0.797677    3.626492   -0.968406
H      -2.420419    3.444606   -0.332291
H      -0.824495    5.096556    0.874839
H      -1.724994    3.992534    1.916396
H       0.751164    4.202381    2.500336
H       0.146512    2.559841    2.286512
H       3.316464    2.341297    0.619482
H       2.146673    1.567224    1.799973
H       1.490400    2.266839   -1.160096
