19

C      -0.102437    1.615023    0.102779
C       1.435981    1.579957   -0.076181
N       1.423997    0.170963    0.351623
C      -0.038874    0.068051    0.123497
C       2.331904   -0.741010   -0.176560
C       3.433448   -0.576069   -0.991465
C       4.029662   -1.863439   -1.157494
C       3.278401   -2.768509   -0.454920
N       2.243854   -2.074460    0.143527
H      -0.410880    2.041008    1.058879
H      -0.680534    2.070519   -0.700898
H       1.737529    1.704863   -1.126857
H       2.044704    2.240603    0.548945
H      -0.591201   -0.450793    0.914108
H      -0.288969   -0.385931   -0.846307
H       3.774741    0.355446   -1.413807
H       4.908125   -2.090956   -1.741830
H       3.371730   -3.834948   -0.332219
H       1.573957   -2.460408    0.784882
