17

C       0.093211    1.472885    0.065967
C      -0.071319   -0.062194   -0.021497
C      -1.546743   -0.462343   -0.059377
C       0.763690   -0.632320   -1.186769
O       2.076806   -0.950550   -0.665693
C       2.063214   -1.074146    0.681943
O       2.998306   -1.425848    1.334784
C       0.658251   -0.658034    1.175095
O       0.265344   -0.782389    2.300706
H       1.147686    1.766915    0.076954
H      -0.381953    1.946918   -0.798656
H      -0.377321    1.854135    0.976211
H      -2.052763   -0.005183   -0.915747
H      -1.665384   -1.547749   -0.131194
H      -2.045886   -0.130922    0.854905
H       0.327042   -1.552825   -1.588333
H       0.906329    0.076446   -2.005051
