20

O      -0.122967    1.462279   -0.062288
C       0.000103    0.048706   -0.054789
C      -1.399881   -0.542047    0.041092
C      -1.400604   -2.073417    0.053191
C      -2.803622   -2.678922    0.086324
O      -3.595047   -2.283147   -1.042746
C      -2.798493   -4.207541    0.169390
O      -4.111600   -4.720509    0.132871
H       0.759052    1.841791   -0.112195
H       0.495352   -0.313707   -0.971540
H       0.609930   -0.294320    0.797797
H      -1.878033   -0.160541    0.951260
H      -1.998344   -0.177258   -0.799841
H      -0.871464   -2.456742   -0.833236
H      -0.840791   -2.444811    0.922006
H      -3.357622   -2.289471    0.949035
H      -3.090285   -2.490580   -1.838798
H      -2.184269   -4.609114   -0.659104
H      -2.337375   -4.539106    1.106511
H      -4.576855   -4.174672   -0.515066
