23

C       0.131935    1.509906   -0.076894
C       0.015360   -0.015095    0.004697
C      -1.430264   -0.527218    0.028020
C      -2.252606   -0.208718   -1.250984
C      -3.298574   -1.340023   -1.376875
C      -2.648079   -2.535093   -0.695139
C      -3.431016   -3.790811   -0.428212
O      -1.277798   -2.717269   -1.108972
C      -1.541255   -2.038722    0.132447
H       1.179438    1.826680   -0.064939
H      -0.320346    1.899633   -0.994646
H      -0.370463    1.991665    0.769919
H       0.532156   -0.476603   -0.845886
H       0.532493   -0.368476    0.906585
H      -1.940369   -0.103541    0.906901
H      -2.713388    0.781250   -1.217520
H      -1.585392   -0.230562   -2.117031
H      -4.223280   -1.090543   -0.841036
H      -3.572650   -1.548040   -2.416655
H      -3.765326   -4.245929   -1.367279
H      -2.817958   -4.522970    0.103264
H      -4.320882   -3.574371    0.172729
H      -1.196921   -2.558141    1.025390
