17

C       0.095275    1.470693    0.117144
C      -0.025891   -0.007899    0.028320
N      -1.046123   -0.753633    0.314788
C      -0.620281   -2.056180    0.052531
C       0.659452   -2.015905   -0.385902
O       1.054818   -0.702886   -0.406381
N      -1.409924   -3.204613    0.223839
C      -2.364533   -3.185500    1.346449
C      -2.850986   -3.059237   -0.047504
H       0.899093    1.758997    0.802424
H       0.324841    1.905980   -0.860955
H      -0.846587    1.883468    0.478794
H       1.375803   -2.753806   -0.698709
H      -2.454321   -4.127751    1.878697
H      -2.387843   -2.289748    1.959719
H      -3.198033   -2.079540   -0.361729
H      -3.302831   -3.907608   -0.552774
