21

C       0.039242    1.517061    0.055244
C      -0.037070    0.008069   -0.067981
C       0.790684   -0.604615   -1.202178
C       0.160152   -1.989123   -1.513753
C      -1.153365   -2.085720   -0.699324
C      -1.019481   -2.674123    0.744354
C      -1.015118   -1.243751    1.312082
O       0.286444   -0.626725    1.215305
C      -1.421563   -0.677992   -0.071248
H       1.068080    1.830066    0.263005
H      -0.286328    2.002094   -0.871317
H      -0.592314    1.871118    0.875003
H       0.743269    0.047671   -2.081407
H       1.841525   -0.670070   -0.904892
H      -0.041584   -2.082393   -2.585171
H       0.833852   -2.810620   -1.252647
H      -1.968303   -2.522742   -1.278362
H      -1.916937   -3.225211    1.043595
H      -0.135043   -3.279093    0.963947
H      -1.500346   -1.038044    2.269660
H      -2.325732   -0.117350   -0.301127
