14

C      -0.139434    1.541357    0.214077
C       0.084226    0.072853   -0.065760
O       0.997276   -0.107869   -1.146400
C       2.035409   -0.903862   -0.748342
N       2.996754   -1.291744   -1.460266
C       1.814011   -1.212971    0.696805
N       2.552907   -1.911428    1.436847
O       0.658583   -0.580741    1.064296
H       0.809325    2.023585    0.462768
H      -0.568070    2.023925   -0.667926
H      -0.831885    1.656054    1.051861
H      -0.851488   -0.441904   -0.319220
H       2.911274   -0.937115   -2.414087
H       2.176104   -1.963537    2.384554
