17

O      -0.152022    1.400639   -0.013260
C      -0.151289    0.000413   -0.037191
C      -0.422358   -0.835557    1.193340
C      -1.393525   -0.077470    2.111594
C      -2.436858   -0.039841    0.950492
C      -2.995047    1.259392    0.421163
O      -3.366741    1.387761   -0.719080
C      -1.434215   -0.758125    0.036649
O      -1.782975   -1.736720   -0.868397
H       0.638355    1.696184    0.451934
H       0.558519   -0.450955   -0.730337
H       0.230447   -1.645675    1.494615
H      -1.731193   -0.664229    2.966787
H      -1.041747    0.896998    2.461739
H      -3.280814   -0.703116    1.170669
H      -3.068837    2.097444    1.150779
H      -2.148296   -1.292049   -1.643631
