18

O       0.142743    0.206671    0.598139
C       0.025186    1.278064    0.049488
C      -1.266650    2.071869   -0.000461
C      -0.986152    3.367390    0.812566
C       0.178598    4.119670    0.167869
C       1.683030    3.900460    0.365012
C       2.055235    2.455091    0.701388
N       1.151705    1.993513   -0.406311
C       0.966915    3.386513   -0.867874
H      -1.538091    2.346319   -1.025350
H      -2.067263    1.470436    0.431349
H      -1.876787    4.002393    0.816041
H      -0.784747    3.107844    1.857761
H      -0.019785    5.158426   -0.083358
H       2.351623    4.748648    0.440307
H       3.102618    2.229327    0.482663
H       1.795179    2.051229    1.684389
H       1.068670    3.637777   -1.916451
