13

O      -0.830997    1.232454   -0.144692
C       0.281366    0.873098    0.159494
C       1.449604    1.789881    0.158597
N       2.640593    1.372635    0.394716
C       3.501713    2.565821    0.282484
C       2.617915    3.670733   -0.366586
N       1.279121    3.132554   -0.097920
H       0.528637   -0.167239    0.442941
H       3.826738    2.855065    1.290584
H       4.401587    2.338593   -0.294777
H       2.756798    4.653945    0.089689
H       2.806802    3.760952   -1.445600
H       0.481240    3.409886   -0.650079
