17

C      -0.254884    1.324120   -0.055183
O       0.164597   -0.024619    0.089496
C       0.740963   -0.535041   -1.049950
C      -0.033479   -1.001439   -2.252637
C       0.828434   -1.980913   -1.470395
C       2.347032   -1.781512   -1.755867
N       2.521554   -0.707802   -2.771979
C       2.272981   -0.367245   -1.348446
H       0.589634    1.989350   -0.284213
H      -1.003731    1.425709   -0.852104
H      -0.695609    1.624603    0.897924
H      -1.093906   -1.122381   -2.051534
H       0.228258   -0.706376   -3.260545
H       0.419469   -2.857324   -0.986212
H       3.120270   -2.517962   -1.581178
H       3.524027   -0.610000   -2.933969
H       2.959849    0.233482   -0.766159
