15

C      -0.131238    1.424482    0.021563
N      -0.048963   -0.025440    0.005418
C       0.618414   -0.590187   -0.937433
C       1.337852    0.050081   -2.043961
C       1.993539   -0.681681   -2.957163
O       2.056390   -2.035030   -2.951594
C       1.402012   -2.677589   -1.940672
C       0.718434   -2.046260   -0.979113
H       0.855084    1.905207    0.113423
H      -0.610330    1.833258   -0.881621
H      -0.729956    1.738957    0.880566
H       1.353704    1.126999   -2.145272
H       2.542915   -0.272856   -3.796315
H       1.514096   -3.750088   -2.028027
H       0.221160   -2.617144   -0.204864
