17

O       0.064162    0.202507    0.978644
C      -0.033858    1.249776    0.363810
C       1.129171    1.855976   -0.270628
C       2.096854    2.355069   -0.784695
C      -1.311952    1.966274    0.190392
C      -2.472706    1.669450    1.115685
C      -2.634644    1.302098   -0.313260
C      -2.923431    2.533430   -1.177850
C      -1.605579    3.203702   -0.667228
H       2.961746    2.782268   -1.231138
H      -2.285835    0.845704    1.795082
H      -3.022999    2.509647    1.533578
H      -2.734677    0.268852   -0.622285
H      -2.892969    2.322988   -2.248298
H      -3.858858    3.053935   -0.949638
H      -1.712414    4.142996   -0.115759
H      -0.874699    3.347986   -1.464415
