16

C       0.103401    1.497613    0.036710
C       0.035009    0.045692   -0.033739
C      -0.021598   -1.154328   -0.091944
C      -0.097219   -2.602100   -0.160940
C      -1.493951   -3.170808    0.041069
O      -2.489209   -2.520233    0.244576
C      -1.566181   -4.716477   -0.034024
N      -2.822198   -5.174615    0.150633
O      -0.575567   -5.392465   -0.238182
H       0.771323    1.826579    0.840383
H       0.476376    1.924947   -0.900577
H      -0.884834    1.929592    0.228538
H       0.270108   -2.990668   -1.120809
H       0.554962   -3.086544    0.578815
H      -3.562162   -4.510467    0.312116
H      -3.007339   -6.162808    0.125915
