20

C       0.028567    1.532209   -0.131268
C      -0.000741    0.021779    0.006365
O       0.686363   -0.529445   -1.128956
C       0.757038   -1.871174   -1.201922
N       0.272043   -2.630213   -0.311725
C       0.391158   -4.070231   -0.528130
C       0.672193   -4.439505   -1.981504
O       1.763293   -3.675410   -2.476028
C       1.467258   -2.298628   -2.469757
H       1.057433    1.902803   -0.152359
H      -0.469890    1.851119   -1.051174
H      -0.486141    1.992812    0.717261
H       0.494201   -0.317198    0.922398
H      -1.023097   -0.370482    0.029776
H       1.192223   -4.456286    0.116264
H      -0.537275   -4.549648   -0.193990
H       0.957764   -5.490369   -2.080335
H      -0.224944   -4.265700   -2.599262
H       0.844822   -2.013301   -3.335871
H       2.413876   -1.756990   -2.556382
