25

C      -0.029614    1.570903   -0.011799
C       0.025941    0.040588   -0.014029
C       0.681393   -0.506477   -1.293131
C       0.762468   -2.040248   -1.289691
C       1.481829   -2.578387   -0.043928
O       2.884274   -2.311048   -0.088453
C       0.825120   -2.044333    1.248746
C       1.532161   -2.569212    2.501355
C       0.751763   -0.506550    1.226984
H       0.978903    2.001245   -0.035504
H      -0.572317    1.951320   -0.883834
H      -0.529453    1.950091    0.885968
H      -1.007496   -0.337770    0.014375
H       0.131698   -0.163060   -2.177064
H       1.690664   -0.076958   -1.389943
H      -0.253205   -2.456372   -1.315449
H       1.280493   -2.401934   -2.184148
H       1.422542   -3.673025   -0.040210
H       3.007870   -1.359467   -0.160680
H      -0.207919   -2.423012    1.248809
H       2.583344   -2.267529    2.504179
H       1.058933   -2.186694    3.411723
H       1.503941   -3.663477    2.541346
H       1.770317   -0.088327    1.263671
H       0.256071   -0.150331    2.138292
