19

N       0.019462    1.380726    0.076794
C       0.111611   -0.001694   -0.076361
O       1.166850   -0.563608   -0.302564
N      -1.091967   -0.653427    0.083460
C      -1.168702   -2.089151    0.090495
C      -1.844603   -2.853848    1.275849
C      -3.225711   -2.385894    0.721379
C      -2.402442   -2.815735   -0.531552
C      -1.958853   -4.056462    0.295881
H       0.848667    1.849730   -0.256195
H      -0.838119    1.823745   -0.219313
H      -1.856864   -0.128883    0.474740
H      -0.190502   -2.458404   -0.215843
H      -1.521094   -2.877714    2.317379
H      -4.084426   -3.013770    0.974390
H      -3.494837   -1.330575    0.823608
H      -2.723719   -2.795642   -1.573929
H      -1.026414   -4.543113   -0.001908
H      -2.741124   -4.784083    0.521987
