19

C       1.522705    1.719091    0.022234
C       1.551037    0.201795   -0.138304
C       0.816667   -0.295839   -1.376203
O       0.187038    0.452386   -2.093120
C       0.927252   -1.784034   -1.638118
C       0.174263   -2.493196   -2.793787
C       1.101469   -1.836528   -3.844249
C       1.952354   -2.373755   -2.672446
O       1.150109   -3.611589   -2.684483
H       2.003096    2.211433   -0.827474
H       0.494077    2.084637    0.068351
H       2.041787    2.021732    0.935732
H       2.580175   -0.182535   -0.177245
H       1.100300   -0.297063    0.731706
H       0.935924   -2.363138   -0.711129
H      -0.882577   -2.749412   -2.857543
H       1.209113   -2.404179   -4.768748
H       1.021029   -0.761029   -3.992041
H       3.033673   -2.472735   -2.570514
