24

C       0.985136    1.508580   -3.015519
C       0.720583    0.016902   -2.800464
C       0.739321   -0.390874   -1.320318
O      -0.201709    0.365075   -0.552814
C       0.494929   -1.878990   -1.160881
C       1.622291   -2.852467   -1.067385
N       0.754691   -2.607281    0.076929
C       1.317224   -1.909848    1.233128
C       1.767851   -2.921510    2.283635
H       0.267605    2.110527   -2.452262
H       1.989045    1.783581   -2.673302
H       0.908284    1.775908   -4.073612
H      -0.257213   -0.254976   -3.224435
H       1.463251   -0.585382   -3.338179
H       1.712060   -0.122532   -0.894355
H      -1.085536    0.092444   -0.825363
H      -0.418996   -2.210802   -1.660632
H       1.554289   -3.833208   -1.531340
H       2.629823   -2.435028   -1.038869
H       2.167199   -1.260257    0.965801
H       0.536753   -1.256178    1.635202
H       0.931568   -3.556097    2.589922
H       2.556125   -3.571329    1.888899
H       2.161924   -2.410235    3.167599
