14

O      -0.926397    1.234250    0.013802
C       0.215384    0.954227   -0.228182
C       1.422162    1.903663   -0.298828
O       2.494130    1.402550   -0.561920
N       1.260647    3.260340   -0.068153
C       0.094565    3.974772    0.242906
C       0.436397    5.283630    0.378073
C       1.852284    5.399185    0.147032
C       2.331925    4.156387   -0.122385
H       0.558006   -0.077744   -0.441653
H      -0.845481    3.463420    0.331445
H      -0.243107    6.087298    0.617126
H       2.436464    6.306014    0.179849
H       3.316045    3.786249   -0.350179
