21

C      -0.131021    1.382035   -0.043157
O      -0.105861   -0.030393   -0.064598
C       0.649861   -0.561094   -1.105173
C       2.205369   -0.488983   -0.965051
C       2.285650   -2.048661   -0.975440
C       0.771171   -2.117272   -1.279864
O      -0.033060   -2.974009   -0.526413
C       0.406707   -1.940484   -2.787005
C       0.128299   -0.421146   -2.556930
H       0.874402    1.810461    0.083776
H      -0.569968    1.798697   -0.961680
H      -0.748792    1.678657    0.807526
H       2.724471    0.013827   -1.785105
H       2.522677   -0.043249   -0.020313
H       2.960052   -2.507172   -1.704464
H       2.500694   -2.453178    0.016620
H       0.136841   -3.877192   -0.817374
H       1.213391   -2.168968   -3.488894
H      -0.481479   -2.510015   -3.068450
H      -0.941376   -0.197465   -2.571472
H       0.650378    0.282521   -3.210588
