20

C       0.093854    1.378557   -0.237144
N       0.007022   -0.029903    0.127403
C       0.779591   -0.362870    1.314671
C      -1.304545   -0.552250    0.099679
C      -2.412962   -0.488848    1.167280
O      -2.875528   -1.825718    0.804567
C      -1.794407   -1.983061   -0.126782
C      -1.968541   -0.967734   -1.208061
O      -3.232879   -0.543695   -1.602137
H       1.141909    1.650266   -0.401616
H      -0.457519    1.550500   -1.165178
H      -0.311777    2.057312    0.534707
H       0.450007    0.172023    2.223548
H       0.711141   -1.437339    1.507044
H       1.832060   -0.110742    1.147008
H      -2.049987   -0.486632    2.199937
H      -3.194370    0.267747    1.038626
H      -1.311131   -2.951767   -0.185685
H      -1.264706   -1.032283   -2.032762
H      -3.857107   -0.994220   -1.016344
