10

N      -0.060594   -1.154349   -0.244196
C      -0.021376   -0.008343   -0.112574
C       0.016585    1.445749    0.059096
C       1.411104    1.989817    0.057966
N       1.979353    2.563388    1.077832
O       3.203591    2.911920    0.631483
N       3.327953    2.515306   -0.701371
N       2.251445    1.964798   -1.039192
H      -0.556496    1.911154   -0.750573
H      -0.463375    1.713326    1.004494
