10

O      -0.055101   -0.010212    0.003215
N      -0.009197    1.199016    0.006764
O       0.989041    1.905548    0.002393
C      -1.308362    1.947448    0.017494
C      -1.321317    3.333620    0.020989
N      -2.497586    3.948870    0.030470
N      -3.603595    3.208971    0.036235
N      -3.566165    1.896126    0.032845
N      -2.404993    1.236257    0.023261
H      -0.421272    3.935503    0.016390
