17

O      -0.188593    0.078933    0.046604
C      -0.030717    1.255664   -0.012247
O      -1.011106    2.240936    0.037467
C      -0.045531    3.310227   -0.209302
C       0.405576    4.025842    1.083331
C       1.568638    3.010362    1.202787
C       2.880189    3.342543    0.420316
C       2.489250    2.328523   -0.701944
C       1.089506    2.257107   -0.107164
H      -0.305258    3.867140   -1.109710
H       0.717092    5.065292    0.948442
H      -0.345768    3.979859    1.874578
H       1.705147    2.475939    2.142402
H       2.921942    4.380845    0.079950
H       3.806699    3.118977    0.951738
H       2.574621    2.652155   -1.742278
H       3.012462    1.374855   -0.590247
