18

O      -0.006809    1.392562   -0.371398
C      -0.037883    0.037137    0.060995
C      -1.496090   -0.387693    0.116296
N      -2.079932   -0.289270   -1.209319
C      -3.419182   -0.605047   -1.380468
N      -4.117151   -0.052304   -2.373204
N      -5.341530   -0.629585   -2.278130
C      -5.435345   -1.508140   -1.258920
C      -4.203643   -1.528610   -0.638694
H       0.899370    1.621502   -0.595112
H       0.502270   -0.614286   -0.641079
H       0.414625   -0.075499    1.057787
H      -1.541615   -1.426777    0.462742
H      -2.023088    0.231312    0.862149
H      -1.832353    0.580985   -1.662842
H      -6.053646   -0.361520   -2.933464
H      -6.348227   -2.044319   -1.051270
H      -3.916187   -2.120893    0.213523
