15

N      -0.832560   -0.211334   -1.270590
C      -0.281547    0.285891   -0.385444
C       0.424964    0.932660    0.722548
C       1.600317    1.744098    0.263398
C       1.737546    3.062287   -0.545001
C       3.195814    2.689640   -0.846880
C       2.841341    3.446537    0.405689
N       2.682224    2.160296    1.219429
C       3.011929    1.384732   -0.035809
H      -0.282462    1.565735    1.272443
H       0.777831    0.168045    1.424146
H       1.048412    3.656540   -1.126906
H       3.804626    2.958654   -1.697146
H       3.166051    4.395979    0.811116
H       3.536918    0.437374   -0.008339
