21

C      -0.247876    1.470929   -0.013363
C       0.051588   -0.029211    0.036435
C       0.678152   -0.554975   -1.258336
C       0.934869   -2.068296   -1.222114
O      -0.256194   -2.836825   -1.088984
C      -0.668538   -3.283655   -2.384504
C       0.626015   -3.556243   -3.152922
C       1.593784   -2.556337   -2.519024
O       2.657132   -2.193014   -2.947077
H       0.663500    2.053237   -0.189112
H      -0.951061    1.708580   -0.819491
H      -0.689838    1.818807    0.925450
H       0.728628   -0.243300    0.874153
H      -0.868271   -0.590326    0.234914
H       0.025309   -0.318731   -2.109780
H       1.637900   -0.061961   -1.455778
H       1.582797   -2.307518   -0.369013
H      -1.296299   -4.165410   -2.239904
H      -1.269951   -2.513569   -2.891013
H       1.002210   -4.566378   -2.952036
H       0.567342   -3.423523   -4.234635
