21

C      -0.105248    1.462797    0.016018
C       0.016836   -0.053691   -0.092818
C       0.858767   -0.526136   -1.295161
C       1.530029   -1.847632   -0.834395
C       1.080140   -2.018032    0.628029
N       0.731163   -0.657448    1.045206
C       0.084624   -0.568755    2.336244
C      -1.238752   -1.238933    2.414128
N      -2.265927   -1.769561    2.423724
H       0.880722    1.915020    0.164278
H      -0.539172    1.869734   -0.902478
H      -0.755876    1.769527    0.841267
H      -0.997260   -0.487213   -0.176317
H       0.236991   -0.653801   -2.184431
H       1.616125    0.226874   -1.532880
H       1.228775   -2.704342   -1.441175
H       2.617815   -1.770103   -0.899030
H       0.210167   -2.695720    0.686175
H       1.860736   -2.425601    1.279126
H       0.734095   -1.016497    3.096682
H      -0.052136    0.480437    2.616229
