25

C      -1.143810    1.275020   -0.228437
C      -0.778676   -0.207859   -0.326775
C       0.535356   -0.451480   -1.081964
C       0.913949   -1.919941   -1.147269
C       0.299103   -2.817643   -2.183432
C       1.781200   -2.494665   -2.248785
C       2.369660   -1.685618   -3.383872
O       1.040459   -2.547837    0.107816
C       2.195277   -2.182208    0.835780
H      -0.366199    1.842542    0.295704
H      -1.263345    1.723620   -1.221417
H      -2.082553    1.419340    0.315641
H      -0.698032   -0.642704    0.675292
H      -1.585340   -0.756624   -0.829030
H       0.450784   -0.055727   -2.099895
H       1.342179    0.122693   -0.605578
H       0.005307   -3.810735   -1.863961
H      -0.352831   -2.363029   -2.923416
H       2.419859   -3.303157   -1.901202
H       1.678853   -0.915469   -3.738872
H       3.298753   -1.186498   -3.086090
H       2.599946   -2.332070   -4.238243
H       3.113082   -2.346139    0.252818
H       2.174493   -1.131805    1.159236
H       2.222811   -2.816686    1.725285
