19

N       0.013096    1.446779    0.151426
C       0.011735    0.040116    0.044766
C      -1.082572   -0.794709    0.016935
N      -0.611093   -2.097738   -0.000497
C       0.758626   -2.105345    0.004450
C       1.172601   -0.788379    0.036175
C       1.566871   -3.337869   -0.019151
C       1.132788   -4.600308    0.699867
C       1.144290   -4.564994   -0.804018
H       0.771048    1.862729   -0.375991
H      -0.856935    1.854180   -0.168396
H      -2.139013   -0.581352    0.018308
H      -1.196905   -2.912334   -0.032147
H       2.199359   -0.453931    0.061434
H       2.631961   -3.133341   -0.006154
H       1.890193   -5.184102    1.211339
H       0.174888   -4.581251    1.209665
H       0.194119   -4.522169   -1.326795
H       1.909573   -5.124541   -1.330725
