12

N       0.062451   -1.066416   -0.331874
C       0.039548    0.049143   -0.034509
C      -0.010733    1.470155    0.328739
N       1.309269    2.081156    0.235345
C       1.685426    2.591854   -1.081628
C       1.311780    3.526232    0.015367
H      -0.765692    1.958243   -0.313620
H      -0.364893    1.553524    1.362650
H       2.725210    2.446564   -1.355934
H       0.976035    2.471965   -1.898500
H       0.351731    4.033164   -0.067997
H       2.072684    4.077439    0.558856
