19

O       0.084477    1.306118   -0.443269
C       0.052421    0.036768    0.187639
C      -1.355290   -0.515152    0.233571
C      -2.379058    0.256905    1.042050
C      -3.728786   -0.463332    1.034235
O      -3.576907   -1.811061    1.454339
C      -2.861971   -2.604072    0.526877
C      -1.614165   -1.939209   -0.030144
O      -1.825223   -0.956584   -1.059153
H      -0.261892    1.178328   -1.334101
H       0.708246   -0.684010   -0.322897
H       0.437689    0.187638    1.201760
H      -2.017182    0.341655    2.073751
H      -2.472113    1.272431    0.642582
H      -4.419835    0.000588    1.742730
H      -4.176549   -0.418206    0.030714
H      -2.581074   -3.516768    1.062290
H      -3.506397   -2.892571   -0.320428
H      -0.774507   -2.606319   -0.228437
