23

C      -0.453007    1.655055   -0.068731
O      -0.272263    0.324878    0.362734
C      -1.374239   -0.512364    0.108583
C      -1.471306   -1.237832   -1.280385
C      -0.220622   -1.185387   -2.153102
C      -1.682772   -2.578758   -0.510816
C      -1.311369   -1.883676    0.830930
C       0.046701   -2.261793    1.400215
O      -0.056032   -3.604306    1.861381
H       0.445541    2.212442    0.207764
H      -0.590342    1.726630   -1.157366
H      -1.324472    2.120249    0.418286
H      -2.306133    0.023743    0.343396
H      -2.337412   -0.924511   -1.871825
H       0.681312   -1.435815   -1.587849
H      -0.308179   -1.899296   -2.979488
H      -0.069702   -0.191726   -2.587554
H      -2.711102   -2.945422   -0.541457
H      -1.019705   -3.398573   -0.799274
H      -2.050800   -2.004037    1.627837
H       0.829547   -2.165847    0.633805
H       0.308342   -1.573378    2.216904
H       0.803831   -3.868197    2.201063
