21

C      -0.110893    1.545501   -0.049225
C       0.011754    0.023806    0.040480
C       0.905248   -0.612477   -1.104749
C       1.896865   -1.315731   -0.201723
C       3.141166   -2.207687    0.017605
C       2.648329   -1.840782    1.454864
C       2.251991   -0.398598    1.016757
C       0.741186   -0.473571    1.327362
C       1.151764   -1.929678    1.031566
H       0.874505    2.024559   -0.019549
H      -0.600212    1.852741   -0.979667
H      -0.699533    1.945426    0.783856
H      -0.994084   -0.412586    0.003029
H       0.335632   -1.289768   -1.748366
H       1.359202    0.156688   -1.738275
H       3.057897   -3.258514   -0.279340
H       4.108351   -1.797714   -0.291979
H       3.088708   -2.146712    2.404751
H       2.909785    0.471757    0.965594
H       0.312971   -0.157552    2.282233
H       0.529711   -2.827070    0.992933
