17

C      -0.394950    1.581257   -0.004861
C      -0.063285    0.117427    0.067480
C      -1.177687   -0.948645    0.207130
N      -0.311660   -1.732381    1.139517
C       0.694338   -0.655287    1.183232
C       1.781291   -0.887109    0.101561
O       0.945931   -0.278250   -0.908288
C       3.032408   -0.148327    0.295111
N       4.009357    0.439771    0.484322
H       0.509528    2.189221    0.083065
H      -0.866206    1.810491   -0.967233
H      -1.090286    1.863854    0.791449
H      -2.089924   -0.550252    0.667875
H      -1.437515   -1.480580   -0.712757
H      -0.738220   -1.930000    2.035582
H       0.997121   -0.263792    2.154240
H       1.990820   -1.940638   -0.107322
