18

O       0.046147   -0.064050   -0.068861
C      -0.013387    1.142931   -0.027426
C      -1.311692    1.924184   -0.017623
C      -1.201321    3.112736   -0.989392
O      -0.175117    3.995909   -0.576362
C       1.121773    3.444311   -0.640635
C       1.942413    3.909070    0.578514
N       1.564513    2.651060    1.270876
C       1.238077    2.010548   -0.031273
H      -2.139341    1.257031   -0.271517
H      -1.470778    2.326866    0.989409
H      -1.025940    2.755340   -2.017546
H      -2.125056    3.697141   -0.993480
H       1.554014    3.578716   -1.639319
H       3.012493    4.000095    0.348755
H       1.588599    4.823363    1.062942
H       2.301294    2.190940    1.793657
H       2.062079    1.436899   -0.474698
