22

C       0.033866    1.523262    0.076822
C      -0.071725   -0.008907    0.060056
C       0.475494   -0.597509    1.367452
C      -1.525230   -0.484548   -0.194879
C      -2.146365    0.082431   -1.472430
O      -1.365134   -0.385839   -2.568641
N      -1.606879   -1.940630   -0.265224
C      -2.233805   -2.706552    0.663354
O      -2.728916   -2.300048    1.694953
H       1.047728    1.829055    0.353122
H      -0.184702    1.964864   -0.899142
H      -0.652267    1.961126    0.812110
H       0.540153   -0.380465   -0.771640
H       0.448020   -1.689641    1.361748
H       1.514147   -0.287791    1.521122
H      -0.108790   -0.255894    2.229188
H      -2.151064   -0.189235    0.653631
H      -3.183916   -0.273405   -1.547102
H      -2.167259    1.179437   -1.435633
H      -1.793022   -0.118303   -3.386657
H      -1.294775   -2.367728   -1.124130
H      -2.238911   -3.777107    0.374798
