17

O      -0.000254    1.368846    0.019296
C       0.038230   -0.012221    0.054679
C       0.674501   -0.943718    1.159976
C      -0.009169   -1.892469    0.156361
C      -0.439319   -3.242410   -0.383853
C      -1.115887   -2.896655   -1.490105
C      -1.057394   -1.351474   -1.563662
C      -1.211852   -0.907762   -0.075080
C       0.389767   -1.016601   -1.084134
H       0.899311    1.698657   -0.080585
H       1.767972   -0.977843    1.210631
H       0.238110   -0.877635    2.161104
H      -0.245428   -4.221237    0.028933
H      -1.610777   -3.544797   -2.200509
H      -1.549358   -0.849626   -2.397144
H      -2.113065   -0.878655    0.541416
H       1.331148   -1.115188   -1.631387
