21

C       0.227341    1.401000    0.256683
C       0.149952   -0.117718    0.080231
C       0.704042   -0.587285   -1.254444
O       2.100028   -0.234135   -1.348215
C       2.671436   -1.144251   -2.278570
C       2.126547   -2.487133   -1.812885
O       2.768420   -2.903085   -0.607493
C       0.640328   -2.136062   -1.508991
O       0.126903   -2.899458   -0.446162
H       1.260750    1.749947    0.181725
H      -0.355782    1.918509   -0.513454
H      -0.166629    1.702976    1.231738
H       0.694703   -0.624298    0.884816
H      -0.886008   -0.464842    0.155636
H       0.175159   -0.074663   -2.074804
H       2.353148   -0.921629   -3.310418
H       3.760108   -1.072820   -2.216247
H       2.241859   -3.303403   -2.528157
H       2.940174   -2.096195   -0.102831
H       0.017297   -2.333910   -2.388226
H       0.904368   -3.228552    0.030317
