21

O      -0.015664    1.358758    0.028075
C       0.021404   -0.048539    0.005110
C       0.633446   -0.685247   -1.267494
C       0.269557   -2.181636   -1.104343
C       1.178320   -2.869634   -0.058870
C       0.305129   -2.215627    1.037497
C       0.675021   -0.724981    1.235868
C      -0.869551   -2.124079   -0.013029
C      -1.379377   -0.688451    0.018214
H       0.891266    1.681633    0.017238
H       0.157794   -0.246611   -2.150840
H       1.714328   -0.520861   -1.350884
H       0.090072   -2.694578   -2.050807
H       1.054523   -3.956675   -0.074069
H       2.248416   -2.633554   -0.072895
H       0.156886   -2.758442    1.972642
H       1.758155   -0.562740    1.288516
H       0.229171   -0.314826    2.147971
H      -1.590597   -2.940023   -0.014002
H      -1.942943   -0.438168    0.922434
H      -1.972498   -0.409906   -0.858418
