17

O      -0.025636   -0.032037    0.171427
C      -0.008095    1.163307   -0.040876
C      -1.301872    1.977432   -0.112160
O      -1.180567    3.134425   -0.926485
C      -0.121707    3.970637   -0.563613
C      -0.156057    5.322329   -1.223554
C      -0.464585    5.224302    0.245758
C       1.156135    3.286322   -0.319522
C       1.225501    1.957020   -0.147451
H      -2.092409    1.362978   -0.546381
H      -1.597909    2.241594    0.917839
H       0.783951    5.763204   -1.535761
H      -0.986426    5.480867   -1.901692
H      -1.502139    5.309608    0.546733
H       0.258329    5.595754    0.963069
H       2.048356    3.906646   -0.283660
H       2.165136    1.435144   -0.002324
