16

O      -0.170432    1.295164    0.043148
N       0.013344   -0.106802    0.019098
C      -1.106125   -0.699394    0.003510
C      -2.547086   -0.186650    0.006080
N      -3.304416   -1.476428   -0.020220
C      -2.503566   -2.274422    0.995364
C      -1.326475   -2.185149   -0.023949
C      -2.494367   -2.237926   -1.056314
H       0.737193    1.616878    0.052938
H      -2.789931    0.391349    0.901644
H      -2.781909    0.422788   -0.870582
H      -2.393001   -1.803924    1.975830
H      -2.919542   -3.279010    1.096392
H      -0.455072   -2.837622   -0.031647
H      -2.909276   -3.238213   -1.196732
H      -2.375087   -1.732873   -2.018395
