15

C       0.047111    1.551089    0.006332
C       0.038353    0.034244   -0.006332
O       0.746566   -0.430785   -1.145191
C       1.381214   -1.637933   -0.767437
C       1.538147   -1.520547    0.743644
O       2.187356   -2.183174    1.492653
O       0.773561   -0.461500    1.133225
C      -1.322782   -0.528536    0.032897
C      -2.433936   -0.983232    0.045813
H       1.081730    1.899788    0.012564
H      -0.457929    1.922207   -0.887898
H      -0.473629    1.921690    0.891082
H       0.778889   -2.524565   -1.010853
H       2.350548   -1.714721   -1.263189
H      -3.417131   -1.386845    0.060815
