16

C       0.199312    1.210693    0.748293
C      -0.042105   -0.099899    0.087955
C      -0.530577   -1.292942    0.519369
C      -0.495855   -2.113560   -0.643713
N      -0.032846   -1.463110   -1.685682
O       0.262849   -0.184599   -1.222248
C      -0.903342   -3.526929   -0.781239
C      -0.551106   -4.532874    0.236339
O      -1.869505   -3.997888    0.164405
H       1.256514    1.489575    0.690551
H      -0.377510    2.005010    0.263630
H      -0.090681    1.161441    1.799284
H      -0.885491   -1.552606    1.502087
H      -1.054050   -3.859218   -1.806293
H      -0.447794   -5.575292   -0.061211
H       0.032642   -4.230613    1.104209
