16

O       0.054239   -0.039693   -0.490170
C       0.064233    1.053661   -0.006232
O      -1.099818    1.464167    0.632124
C      -1.353644    2.665286    1.265493
N      -0.659424    3.695786    1.451226
C       0.701291    3.831187    0.977260
C       0.870322    3.434475   -0.516927
C       1.238259    1.992930   -0.050359
C       1.597594    2.611628    1.334965
H      -2.372635    2.613752    1.642352
H       1.068858    4.815384    1.270231
H       0.007200    3.569326   -1.171259
H       1.742773    3.917705   -0.961787
H       2.028912    1.475464   -0.590856
H       2.654236    2.886421    1.359001
H       1.346507    2.054056    2.239059
