17

O      -0.098397    1.003802   -1.080913
C       0.047011   -0.152021   -0.321090
C       1.089461   -1.131754   -0.838882
N       2.472576   -0.841466   -0.431661
C       3.121173    0.321703   -0.644001
O       2.639991    1.334956   -1.125913
C      -0.201327   -0.073626    1.168240
C      -1.233884   -0.690290    0.243931
H       0.794170    1.384561   -1.173228
H       0.874401   -2.138450   -0.473078
H       1.025167   -1.148350   -1.933504
H       3.012720   -1.595684   -0.039389
H       4.178331    0.275793   -0.322865
H       0.355774   -0.726250    1.832950
H      -0.413502    0.911706    1.565568
H      -2.122834   -0.108774    0.029256
H      -1.388982   -1.763525    0.279050
