16

N      -0.026577   -1.131418   -0.263746
C       0.031852    0.015379   -0.136147
C       0.055005    1.467506    0.052118
C      -0.677061    1.902945    1.391681
C       0.047727    3.226112    1.668200
C       0.987732    3.616000    2.864730
N       2.127181    3.651056    1.878697
C       1.350361    2.925728    0.991236
N       1.460015    1.966512    0.164506
H      -0.445290    1.917463   -0.816909
H      -1.758399    1.987054    1.268980
H      -0.470325    1.155073    2.162324
H      -0.483245    4.097122    1.277981
H       0.798960    4.574906    3.350303
H       1.093760    2.820616    3.609419
H       3.064063    3.348194    2.117801
