16

O       0.016989    1.365444   -0.443608
C       1.353652    1.557736    0.060718
C       1.348795    0.148432    0.671853
C      -0.065986    0.027026    0.102517
C       2.431570   -0.945805    0.570335
C       3.248510   -0.230730    1.672157
C       1.761354   -0.282603    2.094545
O       1.706688   -1.692869    1.630391
H       2.079863    1.730337   -0.744772
H       1.411919    2.391033    0.773609
H      -0.872743   -0.069017    0.839147
H      -0.205206   -0.729808   -0.678840
H       2.770924   -1.507207   -0.301085
H       3.911892   -0.878534    2.245723
H       3.689738    0.742833    1.442561
H       1.296186   -0.047899    3.052793
