16

C      -0.005370    1.415439    0.022895
C       1.439557    1.961628   -0.007954
C       2.144338    1.195280   -1.068398
C       1.700262    0.043115   -1.633820
C       0.409988   -0.584999   -1.197612
O      -0.035568   -0.002092    0.020711
C       2.710795   -0.257187   -2.585808
N       3.674409    0.633510   -2.581698
O       3.312965    1.569818   -1.606823
H      -0.517147    1.727695    0.936232
H      -0.564993    1.814372   -0.838144
H       1.439543    3.036524   -0.219151
H       1.925479    1.818031    0.964572
H      -0.363506   -0.477792   -1.977231
H       0.522605   -1.654578   -0.993558
H       2.779042   -1.088943   -3.273515
