14

C      -0.050754    1.504900    0.015252
C       0.000623   -0.013465   -0.022254
C       0.742147   -0.694016   -1.133274
N       1.288605   -0.708834    0.224369
C      -1.146319   -0.672777    0.545326
C      -2.134110   -1.192449    1.009604
C      -3.244935   -1.787129    1.533359
N      -4.193210   -2.290640    1.977880
H       0.832863    1.924161   -0.475694
H      -0.939504    1.879190   -0.501044
H      -0.081298    1.867255    1.047196
H       0.397885   -1.656464   -1.497859
H       1.190687   -0.048226   -1.884002
H       2.022603   -0.010026    0.320820
