18

C       0.074766    1.546309   -0.051466
C      -0.004614    0.011127    0.041074
C      -1.405915   -0.527109    0.033235
C      -2.153834   -0.926069    1.120953
N      -3.374362   -1.352404    0.677726
C      -3.439014   -1.226893   -0.695242
C      -2.230113   -0.722003   -1.121866
N      -1.804529   -0.518569   -2.453699
H       1.114710    1.890134   -0.059323
H      -0.406010    1.921250   -0.962228
H      -0.434471    2.013475    0.797338
H       0.556120   -0.427244   -0.794644
H       0.505456   -0.314904    0.955025
H      -1.901474   -0.944899    2.169727
H      -4.111078   -1.708126    1.258497
H      -4.319543   -1.517118   -1.245462
H      -2.575663   -0.563340   -3.108404
H      -1.340490    0.373981   -2.574574
