19

C      -0.273751    1.547969    0.077538
C       0.030414    0.062855   -0.031864
C      -1.112093   -0.911611    0.342274
O      -0.290097   -1.590764    1.313590
C       0.783780   -0.637223    1.153780
C       2.045605   -1.293682    0.623911
C       1.810501   -1.417554   -0.886867
O       2.337996   -2.204918   -1.625483
C       0.794291   -0.341793   -1.302189
H       0.643754    2.144442    0.019515
H      -0.932196    1.877709   -0.734251
H      -0.768655    1.783369    1.025546
H      -1.981941   -0.430359    0.809043
H      -1.460185   -1.589589   -0.446636
H       0.931580   -0.041041    2.061595
H       2.922970   -0.651549    0.782434
H       2.251415   -2.264474    1.079601
H       0.160583   -0.705850   -2.115071
H       1.367599    0.506350   -1.700257
