12

O      -0.025457    1.278987    0.462329
C       0.000358   -0.008563   -0.136174
C      -1.394616   -0.571188   -0.111859
C      -1.588990   -2.035127    0.032422
N      -1.949701   -1.125111    1.130514
H       0.840164    1.681693    0.346246
H       0.355878    0.042786   -1.178086
H       0.676518   -0.690875    0.408009
H      -2.116314    0.000138   -0.691714
H      -2.427634   -2.523608   -0.455052
H      -0.703564   -2.658548    0.135199
H      -1.230307   -1.138743    1.850158
