14

C      -0.029543    1.572680    0.023662
C       0.022922    0.035308   -0.033102
C       0.697332   -0.479689   -1.215178
C       1.259187   -0.895464   -2.200307
C       1.926612   -1.411011   -3.369824
O       2.067365   -2.598784   -3.589691
C       2.425541   -0.394860   -4.278866
C       2.843179    0.439249   -5.039410
H       0.978017    1.996212    0.028832
H      -0.562549    1.975764   -0.841215
H      -0.546173    1.898062    0.930806
H       0.529996   -0.357351    0.857809
H      -0.993763   -0.377559   -0.002779
H       3.214811    1.169950   -5.715898
