18

O      -0.075625    1.406024    0.197856
C      -0.134783   -0.000398    0.216610
C      -1.538728   -0.544926   -0.149003
C      -1.896393   -0.054743   -1.485709
N      -2.112559    0.361325   -2.542742
C      -1.600094   -2.063332   -0.086569
C      -1.704258   -2.750308    1.262950
C      -2.873837   -2.751811    0.310573
O      -3.965357   -1.921446    0.572979
H      -0.213943    1.700047   -0.710142
H       0.614313   -0.455887   -0.448748
H       0.094557   -0.310538    1.239746
H      -2.264635   -0.126141    0.554875
H      -1.002691   -2.565037   -0.841685
H      -1.147522   -3.666132    1.426538
H      -1.798065   -2.110941    2.135081
H      -3.116104   -3.681397   -0.202740
H      -4.475691   -2.310957    1.290449
