18

C       0.233584    1.465921   -0.461742
O       1.579929    1.433213    0.060355
C       1.419771    0.094702    0.558867
C      -0.028100    0.008647   -0.016995
N      -0.068275   -1.010205   -1.062125
C       1.272389   -1.536693   -1.274089
C       2.217505   -0.805272   -2.262265
O       3.133012   -0.462284   -1.198357
C       2.244643   -0.976191   -0.196650
H      -0.375747    2.225680    0.043799
H       0.203328    1.633612   -1.543875
H       1.550886    0.044819    1.644900
H      -0.856190   -0.113074    0.683106
H      -0.709672   -1.751308   -0.816737
H       1.251481   -2.618759   -1.412224
H       2.700040   -1.428883   -3.023860
H       1.778246    0.078531   -2.738490
H       2.748073   -1.670792    0.483635
