14

C       0.006519    1.417226   -0.017774
O       0.003039   -0.008737    0.015066
C       0.607861   -0.610986   -1.026959
C       0.666845   -1.977528   -1.229640
N       0.143819   -3.086179   -0.551795
N       1.350424   -2.068795   -2.400292
N       1.707761   -0.866153   -2.878526
N       1.237638    0.027268   -2.038261
H       1.028947    1.808268   -0.012713
H      -0.504039    1.791612   -0.911069
H      -0.523375    1.737362    0.880422
H      -0.594521   -2.789185    0.076203
H       0.843284   -3.571513    0.002851
H       1.586972   -2.904111   -2.912116
