16

C      -1.202417    0.670211   -0.191322
C       0.281393    0.422144   -0.058253
O       0.970805    0.900958    0.811406
C       0.909600   -0.479890   -1.121259
C       2.103380   -1.342933   -0.682307
C       1.184758   -2.539169   -1.048403
O       0.100224   -1.655079   -1.406885
C       1.624341   -3.365890   -2.175310
N       1.985415   -4.018408   -3.057900
H      -1.417384    1.146619   -1.155135
H      -1.737609   -0.284089   -0.189511
H      -1.548353    1.308078    0.622260
H       1.070902    0.113559   -2.032466
H       3.007551   -1.251321   -1.281159
H       2.343842   -1.256024    0.376304
H       0.908691   -3.194854   -0.215168
