22

C      -0.002614    1.479501    0.023964
C       0.043231   -0.022453   -0.024459
N      -0.604081   -0.834070    1.041274
C       0.869493   -0.892710    0.839010
C       1.348737   -1.953786   -0.169964
C       0.062639   -2.265201   -0.979250
C       0.177890   -0.766689   -1.389092
C      -0.552086   -0.209771   -2.591181
C       1.734591   -1.018109   -1.366971
H       0.767069    1.921882   -0.618294
H      -0.972828    1.863563   -0.312745
H       0.165691    1.844812    1.042979
H      -0.787303   -0.220794    1.834648
H       1.532163   -0.512117    1.609090
H       2.010471   -2.741582    0.189781
H       0.273107   -2.920501   -1.827834
H      -0.825834   -2.589210   -0.441619
H      -1.636371   -0.219942   -2.430475
H      -0.258717    0.824273   -2.805057
H      -0.344161   -0.804040   -3.487020
H       2.389181   -0.165294   -1.157985
H       2.090816   -1.561894   -2.246524
