19

C       0.579504    1.478027    0.087977
C       0.113086    0.063170   -0.041485
C       0.178560   -0.719709   -1.119321
C      -0.425809   -2.078826   -0.891275
C      -0.599071   -2.140036    0.662356
O       0.544655   -2.752278    1.266670
C      -0.553957   -0.653392    1.111390
C      -1.819578   -2.843295    1.066747
C      -2.803276   -3.455163    1.389731
H       1.330687    1.575571    0.881976
H       1.018821    1.844573   -0.843755
H      -0.248002    2.146106    0.360048
H       0.594276   -0.421110   -2.075894
H      -1.389746   -2.188931   -1.404234
H       0.210388   -2.906886   -1.225955
H       0.510207   -3.693451    1.062944
H       0.000431   -0.580958    2.052863
H      -1.561279   -0.260664    1.295675
H      -3.675671   -3.985555    1.682276
