14

O      -0.250127    0.140364   -0.010690
C      -0.058092    1.307397    0.058083
O      -0.994600    2.305828    0.333553
C       0.001517    3.325484    0.058606
C       1.094882    3.254169    1.059117
C       0.889884    2.826537    2.506569
C       0.677740    3.982627    3.377444
N       0.521665    4.909986    4.048320
C       1.078844    2.278726   -0.130787
H      -0.304403    4.162958   -0.551423
H       1.855465    4.020021    0.925054
H       0.024274    2.162270    2.586364
H       1.763431    2.271533    2.865155
H       1.896751    2.189768   -0.830450
