15

O       0.118336    0.054240   -0.580204
C       0.051629    1.158626   -0.130400
C      -1.115750    2.060406    0.322513
C      -0.053877    3.044722    0.832615
C       1.108174    2.217219    0.259059
O      -0.158480    4.444277    0.719207
C      -0.087008    3.876694    2.048813
C      -1.263977    3.956715    2.868153
C      -2.238247    4.002931    3.570803
H      -1.706871    2.449624   -0.513148
H      -1.794115    1.633302    1.066140
H       1.888397    1.884228    0.948608
H       1.579923    2.684053   -0.612472
H       0.855765    4.074250    2.557826
H      -3.100792    4.053868    4.188989
