17

C      -0.184729    1.498105   -0.058851
C       0.011365    0.002115    0.064463
O       0.130604   -0.558755    1.127871
C       0.033958   -0.789068   -1.252056
C       1.159615   -0.337896   -2.189861
C      -0.190644   -2.302675   -1.094966
O      -1.500334   -2.185319   -1.758564
C      -1.355162   -0.841661   -1.925561
O      -2.105346   -0.068333   -2.430660
H       0.743353    1.969098   -0.402562
H      -0.959240    1.725126   -0.798233
H      -0.445682    1.910539    0.916239
H       2.134288   -0.438323   -1.702276
H       1.167670   -0.945075   -3.099567
H       1.025512    0.704903   -2.486950
H       0.470504   -2.950154   -1.672951
H      -0.302571   -2.650490   -0.069145
