16

C      -0.005554    1.522713    0.011194
C      -0.007628    0.016292    0.008295
C      -0.066106   -0.718929   -1.170100
N      -0.070506   -2.056119   -1.241439
C      -0.024710   -2.752445   -0.109482
N      -0.091658   -4.129286   -0.169277
C       0.044703   -2.094640    1.131303
F       0.113078   -2.847116    2.244751
C       0.055337   -0.724293    1.200140
H       0.893105    1.925923    0.492133
H      -0.040272    1.914403   -1.009019
H      -0.868789    1.927746    0.551917
H      -0.108139   -0.200036   -2.125553
H       0.146351   -4.510668   -1.072447
H       0.292346   -4.625616    0.619310
H       0.112695   -0.241843    2.170580
