19

C       0.284344    1.472332   -0.049072
C      -0.038135   -0.027303   -0.032490
C       0.694724   -0.763056    1.090951
O       1.615973   -0.310120    1.716576
N      -1.448001   -0.418418    0.017752
C      -2.187169    0.100838    1.165190
C      -2.154443   -0.224230   -1.239008
C      -3.389353   -1.019999   -1.295011
N      -4.367016   -1.633071   -1.342390
H       1.366811    1.613068   -0.081586
H      -0.156381    1.963891   -0.921105
H      -0.081232    1.969431    0.853129
H       0.369833   -0.483667   -0.949362
H       0.302214   -1.788720    1.268263
H      -2.385464    1.184238    1.108527
H      -3.147310   -0.416626    1.242144
H      -1.626794   -0.094866    2.083654
H      -2.429263    0.828229   -1.438506
H      -1.510834   -0.545539   -2.065064
