18

C      -0.220357    1.555969    0.137482
C       0.045025    0.070994    0.079433
C      -1.150879   -0.835591   -0.212256
O      -0.805069   -2.116507    0.291099
C      -0.072662   -1.906202    1.493338
C       0.795609   -0.673230    1.222788
C       1.861915   -0.881189    0.169035
N       2.986371   -1.434664    0.160965
O       1.163553   -0.243114   -0.833011
H       0.696432    2.104280    0.368820
H      -0.599095    1.918258   -0.823887
H      -0.966179    1.783148    0.905395
H      -2.045564   -0.437224    0.295256
H      -1.358743   -0.929561   -1.280841
H      -0.750911   -1.712583    2.340199
H       0.505797   -2.809075    1.699245
H       1.094000   -0.117209    2.110804
H       3.417444   -1.389986   -0.764135
