23

C      -0.028220    1.618902    0.192431
C       1.467840    1.234647    0.044942
C       1.169383    0.051489    1.025778
C      -0.007950    0.062326    0.006797
C      -1.182596   -0.837878   -0.274353
C      -1.733478   -0.480248   -1.676646
C      -0.641515   -0.425847   -2.767269
C       0.472284    0.606067   -2.467400
C       1.062933    0.257424   -1.105200
H      -0.340722    1.976960    1.178019
H      -0.476537    2.226233   -0.594710
H       2.325991    1.907864    0.082777
H       1.846436   -0.807214    0.980238
H       0.938452    0.325802    2.059319
H      -0.849026   -1.884701   -0.267250
H      -1.970591   -0.748628    0.483001
H      -2.503019   -1.204602   -1.965462
H      -2.233875    0.495778   -1.624466
H      -0.186109   -1.421660   -2.865159
H      -1.105902   -0.204212   -3.734843
H       1.235979    0.575591   -3.252772
H       0.047805    1.615449   -2.488581
H       1.741636   -0.599982   -1.203312
