18

C      -0.002767    1.521798   -0.253410
C      -0.036644    0.080917    0.270296
C      -1.417116   -0.528067    0.161343
C      -1.890985   -1.186124   -1.089719
C      -1.602001   -2.063096    0.142511
C      -0.452168   -2.927075    0.130017
C       0.506843   -3.651145    0.120474
C      -2.750730   -2.574638    0.853474
N      -3.680476   -2.961953    1.421950
H       1.001498    1.944917   -0.159529
H      -0.290525    1.567041   -1.308857
H      -0.689640    2.165569    0.306308
H       0.678582   -0.537281   -0.281728
H       0.282855    0.058506    1.318964
H      -2.184745   -0.022787    0.741259
H      -2.929545   -1.092185   -1.383516
H      -1.186981   -1.303527   -1.905925
H       1.349907   -4.297111    0.114950
