18

C      -0.113093    1.464311   -0.024078
C       0.033476   -0.042922   -0.018556
O      -1.149952   -0.652949   -0.490219
C      -1.410673   -1.807813    0.292457
O      -0.710197   -1.680455    1.524382
C       0.335724   -0.764245    1.330431
C       1.680859   -1.245540    0.746477
N       1.362548   -2.039558   -0.461503
C       1.391238   -0.566356   -0.556684
H       0.796826    1.945074    0.348467
H      -0.297057    1.823747   -1.041604
H      -0.955121    1.767118    0.604347
H      -2.485602   -1.847346    0.508412
H      -1.081157   -2.707340   -0.236922
H       0.437735   -0.127441    2.212599
H       2.620686   -1.374499    1.268518
H       2.244817   -2.385659   -0.836300
H       2.063220   -0.060348   -1.239796
