17

C      -0.227212    1.287483   -0.353916
C       1.161783    1.183979    0.189717
C       0.294098   -0.061152    0.113538
C      -0.233235   -0.705387    1.337953
N      -0.321435   -2.044820    1.307304
C      -0.793744   -2.644126    2.399908
N      -1.194607   -2.069969    3.533669
C      -1.102536   -0.735428    3.553529
C      -0.627656    0.001135    2.480961
H      -0.986896    1.765694    0.254773
H      -0.360916    1.421227   -1.421313
H       1.997111    1.245507   -0.498428
H       1.363676    1.590583    1.174715
H       0.540887   -0.783878   -0.654659
H      -0.859187   -3.729512    2.358904
H      -1.423398   -0.240974    4.467941
H      -0.568531    1.082022    2.536556
