21

C      -0.020430    1.588436   -0.078606
C       0.077514    0.061780   -0.044762
C       0.782091   -0.601481   -1.222609
C       2.296977   -0.737550   -1.086457
C       3.047599    0.061319   -0.029992
C       2.255235    0.118780    1.306089
C       0.884655   -0.545239    1.131329
O       1.105062   -1.910993    0.738674
C       1.385434   -1.852476   -0.643455
H       0.955915    2.063535   -0.209366
H      -0.653677    1.910991   -0.911326
H      -0.466758    1.979627    0.842564
H      -0.939659   -0.348766    0.007574
H       0.326004   -0.577343   -2.205692
H       2.832969   -0.902961   -2.016732
H       4.029142   -0.395917    0.134641
H       3.243986    1.071027   -0.408369
H       2.787107   -0.425106    2.091772
H       2.139225    1.149290    1.655632
H       0.326905   -0.562948    2.070934
H       1.372881   -2.828621   -1.112226
