17

C      -0.181419    1.425879   -0.274017
C       0.067432   -0.054426   -0.119146
C       0.931303   -0.824023   -1.079982
N       1.624110   -0.149173   -2.131285
C       1.038213    0.060753   -3.344870
O      -0.100754   -0.248069   -3.616477
C       1.420623   -0.601283    0.345810
C       2.529503    0.285054    0.549580
N       3.437117    0.993373    0.672434
H       0.705184    1.949953   -0.636677
H      -0.990617    1.591823   -0.991104
H      -0.469172    1.871829    0.682561
H      -0.772224   -0.620323    0.273566
H       0.619986   -1.835534   -1.324168
H       2.593139    0.102661   -2.001981
H       1.730005    0.548643   -4.058782
H       1.417848   -1.463080    1.003872
