19

C      -0.000166    1.503362   -0.024650
C      -0.006124    0.013721    0.075678
C       1.074952   -0.929184   -0.361651
C       0.549202   -0.995588    1.067628
C       1.405157   -0.859535    2.298624
C       2.106279   -2.161971    2.643256
O       2.065205   -2.699687    3.718875
C      -0.848676   -1.606998    1.017673
O      -1.275806   -0.651480    0.011594
H       1.008185    1.897111    0.132668
H      -0.331818    1.818771   -1.020330
H      -0.672468    1.949354    0.714541
H       0.847915   -1.717019   -1.075314
H       2.065715   -0.494144   -0.458193
H       2.186257   -0.107573    2.115769
H       0.825325   -0.538394    3.169979
H       2.676167   -2.608335    1.795967
H      -0.944436   -2.644885    0.676709
H      -1.417285   -1.470039    1.945350
