21

C       0.274835    1.652877    0.114818
O       1.486010    1.454143   -0.642261
C       1.184106    0.050317   -0.839165
C       2.326643   -0.910358   -0.536235
C       3.209676   -0.579102    0.682478
C       2.473953   -0.037109    1.929810
C       1.145222   -0.694380    2.222722
C       0.061662   -0.605888    1.446470
C      -0.031371    0.129460    0.137265
H       0.463546    2.123794    1.085514
H      -0.457908    2.254195   -0.439253
H       0.844078   -0.116960   -1.871452
H       1.865453   -1.897775   -0.406053
H       2.972010   -0.992667   -1.418589
H       3.763733   -1.487521    0.946137
H       3.957898    0.165178    0.391804
H       3.133462   -0.136743    2.797585
H       2.321532    1.036713    1.786953
H       1.070389   -1.274798    3.139527
H      -0.843626   -1.116233    1.767009
H      -0.975600   -0.119455   -0.350880
