13

O      -0.017679    0.379048    1.187817
C      -0.015018    1.247676    0.343097
C      -1.283786    1.800528   -0.146336
C      -1.591545    2.741904   -1.050240
O      -0.819284    3.520290   -1.836611
C       0.529289    3.513033   -1.880774
C       1.441450    2.791402   -1.213572
C       1.347255    1.743091   -0.190277
O       2.354731    1.241948    0.259079
H      -2.142380    1.340872    0.333324
H      -2.629512    2.985490   -1.247732
H       0.848024    4.249901   -2.609572
H       2.470847    3.018208   -1.473271
