18

C       0.252597    1.262158    0.208049
O      -0.243261    0.054658   -0.352433
C       0.594482   -0.524864   -1.264257
C       0.812508   -0.001228   -2.712606
C       0.227003   -1.364772   -2.435793
N       1.634735   -1.945410   -2.437148
C       2.194608   -0.606967   -2.976704
C       3.061898   -0.460115   -1.711448
C       1.926260   -1.278404   -1.072415
H       1.175193    1.093745    0.779878
H       0.452009    2.010966   -0.570442
H      -0.518291    1.637553    0.884003
H       0.333982    0.896512   -3.082221
H      -0.675402   -1.873946   -2.748732
H       2.617620   -0.589308   -3.981922
H       3.980937   -1.046671   -1.791968
H       3.277424    0.540459   -1.328119
H       2.061509   -1.918873   -0.200484
