17

C      -0.115777    1.501229   -0.034342
C       0.004054    0.054019    0.006843
C       0.105711   -1.147371    0.040023
C       0.059055   -2.594145    0.097240
O      -0.997211   -3.185602    0.223651
N       1.282737   -3.256350   -0.000131
C       2.566120   -2.579726   -0.152256
C       1.286183   -4.646478    0.050869
N       2.379851   -5.291722   -0.033575
H       0.537777    1.970493    0.708764
H       0.168653    1.887307   -1.019164
H      -1.143938    1.817730    0.168836
H       3.224211   -2.836931    0.681617
H       3.052882   -2.907964   -1.074094
H       2.400558   -1.504799   -0.179535
H       0.283014   -5.055464    0.165317
H       2.195338   -6.291926    0.021544
