18

C       0.057080    0.500059    1.321189
C      -0.080924   -0.582977    0.357508
C      -0.189462   -1.467031   -0.453274
C      -0.347573   -2.538473   -1.432316
C      -1.571244   -3.412674   -1.109172
O      -2.656545   -3.230655   -1.607339
N      -1.296750   -4.477708   -0.260156
C      -0.845031   -4.384752    1.117488
C      -2.201939   -4.927573    0.767951
H       0.912483    0.338436    1.986329
H       0.206559    1.460955    0.816725
H      -0.837615    0.592313    1.946782
H      -0.509193   -2.121634   -2.431148
H       0.551147   -3.164687   -1.463331
H      -0.045646   -5.064256    1.400590
H      -0.793466   -3.395824    1.562650
H      -3.069564   -4.304051    0.965476
H      -2.379582   -5.998171    0.810099
