23

C      -0.055986    1.612204    0.110107
C      -0.005602    0.084276    0.022319
C      -1.396425   -0.543232   -0.103440
O      -2.060848   -0.142086   -1.301949
C      -1.401426   -2.083780    0.043536
C      -0.565918   -2.796352   -1.032106
O      -0.867804   -2.350985    1.338499
C      -2.852650   -2.588922    0.009705
O      -2.813629   -3.959589    0.411898
H       0.950460    2.040111    0.142955
H      -0.581152    2.036526   -0.750511
H      -0.585962    1.935253    1.012834
H       0.603967   -0.216418   -0.841660
H       0.481372   -0.337468    0.906567
H      -2.023739   -0.154313    0.708428
H      -1.450451   -0.279540   -2.034352
H       0.494954   -2.568389   -0.907961
H      -0.698267   -3.877788   -0.945983
H      -0.877318   -2.504992   -2.041583
H      -1.187795   -3.232011    1.572645
H      -3.453878   -1.996065    0.712996
H      -3.278130   -2.474786   -0.993998
H      -3.711034   -4.252600    0.589665
