18

C      -0.036589    1.499997   -0.018547
C       1.507557    1.735948   -0.010463
N       2.076155    0.366039    0.039714
C       1.197655   -0.391840   -0.944505
C       1.485404   -1.863791   -0.624526
O       2.682413   -2.095215    0.125636
C       1.470542   -1.816510    0.834732
C       1.177311   -0.327125    1.052845
C       0.018354   -0.023803    0.031385
H      -0.545039    1.933893    0.847573
H      -0.527022    1.876588   -0.921101
H       1.869771    2.242495   -0.909034
H       1.851746    2.299833    0.860622
H       1.217950   -0.056140   -1.982856
H       1.122388   -2.675998   -1.244421
H       1.094451   -2.587128    1.498384
H       1.176694    0.075094    2.067486
H      -0.922667   -0.581175    0.039859
