23

C       0.007639    1.574491    0.137730
C       0.054963    0.044403    0.157014
C      -1.323442   -0.596277    0.118528
C      -1.339658   -2.139866    0.165054
O      -2.422868   -2.464322    1.027926
C      -3.037168   -1.246288    1.429926
C      -3.510405   -1.332115    2.868402
C      -4.577124   -2.410412    3.070794
O      -2.058368   -0.246876    1.288282
H       1.014673    1.999518    0.182072
H      -0.471522    1.944065   -0.775652
H      -0.561887    1.952184    0.990924
H       0.628457   -0.326582   -0.702052
H       0.569406   -0.307512    1.059370
H      -1.873417   -0.246945   -0.772158
H      -1.490817   -2.581312   -0.827656
H      -0.410132   -2.541575    0.588694
H      -3.885882   -1.034729    0.748993
H      -2.632627   -1.529847    3.492699
H      -3.898128   -0.346748    3.150438
H      -4.898702   -2.448886    4.115386
H      -5.463258   -2.214170    2.456883
H      -4.189363   -3.394511    2.794604
