16

O      -0.102142    1.410306   -0.069281
C      -0.029176    0.010776   -0.030687
C       0.918774   -0.705467   -1.034177
O       1.645699   -1.314310    0.082954
C       0.927827   -0.615309    1.018514
O       1.102171   -0.560743    2.192053
C      -1.435792   -0.549071    0.023193
C      -2.462233    0.108419    0.864150
N      -2.538634    0.185695   -0.606920
H       0.712908    1.789345    0.275114
H       0.478294   -1.468402   -1.677588
H       1.567575   -0.035467   -1.602400
H      -1.477629   -1.627256   -0.114371
H      -3.233629   -0.493040    1.335015
H      -2.165109    0.998767    1.408553
H      -2.197469    1.099086   -0.899781
