18

O      -0.405039    1.428204    0.179908
C      -0.142614    0.038834    0.142627
C       0.274776   -0.586460    1.518289
C      -0.956274   -1.501171    1.729866
C      -1.109819   -2.163562    0.331294
C      -1.486092   -0.706509   -0.045651
N      -2.083543   -0.620886    1.314562
C      -2.512977    0.497940    1.981846
O      -2.371592    0.675850    3.172526
H       0.334706    1.871172    0.606518
H       0.565841   -0.199896   -0.662502
H       1.213596   -1.144085    1.472737
H       0.346088    0.175255    2.298477
H      -1.055842   -2.045413    2.665932
H      -0.218935   -2.596620   -0.127447
H      -1.962446   -2.839349    0.272991
H      -2.099339   -0.438393   -0.904498
H      -3.074404    1.185741    1.321952
