17

C      -0.024141    1.542693   -0.036445
C       0.051380    0.022108   -0.028205
O       1.125502   -0.551645   -0.049046
C      -1.214717   -0.719172    0.005962
C      -2.507862   -0.215271    0.031645
N      -3.329452   -1.278024    0.057774
N      -2.671611   -2.464263    0.051906
C      -1.385318   -2.140812    0.020258
C      -0.331960   -3.198423    0.004143
H       0.987209    1.949211   -0.064330
H      -0.584132    1.899309   -0.907957
H      -0.539867    1.910591    0.857434
H      -2.884082    0.795727    0.032750
H      -4.335320   -1.281903    0.080505
H       0.298013   -3.108608   -0.885221
H       0.337177   -3.096212    0.863065
H      -0.800257   -4.184729    0.021725
