14

C       0.108873    1.556488    0.058310
C       0.001780    0.075228    0.015105
C      -1.076226   -0.722908    0.039343
N      -2.429953   -0.414665    0.112444
O      -0.665294   -2.062607   -0.023496
C       0.710735   -2.097254   -0.088502
O       1.373369   -3.097513   -0.152278
N       1.109235   -0.778604   -0.064381
H       0.684648    1.895006    0.928085
H       0.602726    1.952405   -0.837222
H      -0.892751    1.985337    0.118743
H      -2.944475   -0.753463   -0.695559
H      -2.868124   -0.806291    0.941312
H       2.077320   -0.512262   -0.100919
