15

C       0.009720    1.373208   -0.049138
C       0.389588   -0.066382   -0.404225
N      -0.661665   -1.070708   -0.469288
C      -1.862336   -0.752330   -0.235794
N      -2.859860   -1.723329   -0.301334
C      -4.190464   -1.479179   -0.065420
O      -4.656052   -0.402074    0.225420
H       0.908199    1.997316   -0.042733
H      -0.687467    1.802723   -0.776259
H      -0.448888    1.441617    0.942958
H       0.900081   -0.081232   -1.376643
H       1.134581   -0.436162    0.313179
H      -2.254500    0.230785    0.025118
H      -2.557710   -2.657656   -0.539517
H      -4.797991   -2.397623   -0.174046
