17

O       0.078302    1.313595   -0.541262
C       0.027641    0.039460    0.075856
C      -1.328614   -0.573299   -0.250685
C      -1.501585   -1.963654    0.367783
C      -2.821819   -2.585607    0.062696
C      -3.913728   -2.187364   -0.648484
N      -4.838206   -3.201769   -0.570945
N      -4.399095   -4.156107    0.114401
O      -3.073912   -3.798720    0.554748
H       0.930238    1.713308   -0.343799
H       0.831605   -0.618763   -0.293109
H       0.147245    0.116692    1.169242
H      -2.111874    0.102035    0.111105
H      -1.432740   -0.627988   -1.340013
H      -0.711271   -2.640014    0.016500
H      -1.386290   -1.914597    1.458540
H      -4.105037   -1.280305   -1.194185
