16

C       0.015919    1.523403   -0.066691
C      -0.022583   -0.000722    0.044537
N       0.692002   -0.514688    1.224486
C      -0.029645   -0.838303    2.367515
O       0.433875   -1.228149    3.407394
C       2.076571   -0.638801    1.146276
N       2.687175   -0.302408    0.074878
C       2.806421   -1.162847    2.285786
N       3.581268   -1.554532    3.050227
H       1.044051    1.876166   -0.165863
H      -0.543109    1.840952   -0.951886
H      -0.437307    1.995148    0.810520
H      -1.053936   -0.355826    0.121915
H       0.427499   -0.459722   -0.837137
H      -1.112324   -0.692976    2.202747
H       3.688038   -0.465358    0.164297
