18

O      -0.037328    0.086905   -0.452643
C       0.012142    1.215169   -0.070805
C      -0.972091    2.201297    0.573757
N       0.094338    3.246219    0.545634
C       1.092293    2.324617   -0.076195
C       2.295112    2.037917    0.808229
C       3.005792    3.255044    1.442891
C       2.502346    2.670015    2.776603
O       1.886921    1.548483    2.104748
H      -1.864159    2.402906   -0.031336
H      -1.282779    1.930218    1.588296
H      -0.146671    4.015934   -0.067045
H       1.428321    2.601515   -1.084952
H       2.949938    1.317167    0.300466
H       4.088569    3.278646    1.314003
H       2.577829    4.221669    1.175649
H       3.277568    2.343516    3.479714
H       1.761594    3.279007    3.305469
