16

C       0.301378    1.365232    0.206999
N       0.089622   -0.066329    0.093324
C      -0.048510   -0.773278   -1.065505
N      -0.228090   -2.057065   -0.856024
C      -0.202931   -2.198995    0.507630
C      -0.009778   -0.987200    1.121847
C       0.065987   -0.628731    2.574677
C       1.357224   -0.054108    2.975497
N       2.369640    0.420235    3.267584
H       1.237472    1.582816    0.728022
H       0.348927    1.790487   -0.796743
H      -0.523332    1.843117    0.745704
H      -0.006377   -0.286379   -2.029251
H      -0.324878   -3.162388    0.980942
H      -0.720591    0.081104    2.864822
H      -0.107349   -1.535822    3.162052
