15

O       0.311697   -0.140558    0.580425
C       0.162953    0.983929    0.168339
C       1.289384    1.940369    0.015433
C       1.432020    2.903972   -1.177932
C       0.220692    3.223350   -2.026839
C      -0.775027    3.861162   -1.051184
O      -1.890132    4.226610   -1.257444
O      -0.195755    3.948973    0.194251
C       1.119729    3.441217    0.178033
H      -0.843736    1.355811   -0.112786
H       2.230211    1.541425    0.380360
H       2.421101    2.992939   -1.607944
H       0.463587    3.953660   -2.804801
H      -0.253229    2.372678   -2.522353
H       1.795453    4.009157    0.804338
