18

C      -0.164560    1.472186   -0.060760
N       0.116074    0.044793    0.033460
C       1.447845   -0.488631   -0.159763
C       2.558271    0.378176    0.390447
C       3.201176   -0.335571    1.570037
O       4.199358    0.368056    2.264030
C       1.863527    0.311125    1.779777
O       1.675809    1.274828    2.741767
C       0.756395   -0.529905    1.199606
H       0.603211    2.114692    0.387098
H      -0.277307    1.736382   -1.117160
H      -1.114805    1.671494    0.443608
H       1.572866   -1.318083   -0.847782
H       3.043416    1.220410   -0.089670
H       3.336238   -1.419114    1.566541
H       4.973573    0.456392    1.699366
H       2.552231    1.473375    3.101621
H       0.277888   -1.368821    1.693424
