21

O       0.095773    1.315621    0.023365
C       0.059517   -0.118419    0.006123
C       0.844040   -0.511468   -1.254140
C       2.289505   -0.061280   -1.217332
O       3.230789   -0.790914   -1.406778
C       0.648706   -0.696434    1.314118
C      -0.540111   -0.706891    2.284944
C      -1.699824   -1.211982    1.404087
C      -1.414064   -0.634749   -0.006493
H      -0.305205    1.620207    0.843773
H       0.818391   -1.593043   -1.408589
H       0.364212   -0.021955   -2.112910
H       2.429516    1.018334   -1.000462
H       0.988667   -1.724587    1.140504
H       1.509724   -0.115835    1.656674
H      -0.370220   -1.326349    3.169303
H      -0.746837    0.308557    2.650633
H      -1.678923   -2.306743    1.372904
H      -2.682542   -0.925344    1.787595
H      -2.064013    0.210382   -0.250144
H      -1.567074   -1.386605   -0.785776
