21

C      -0.403357    1.495623    0.219446
O      -0.145386    0.107914    0.151109
C      -1.308195   -0.720223    0.146833
C      -0.894102   -2.002678   -0.575494
O      -0.455448   -1.720748   -1.887546
C      -1.882112   -0.964065    1.561639
C      -0.973059   -1.793828    2.468230
C       0.182941   -1.069342    3.127328
O      -1.173646   -2.976008    2.633031
H       0.559699    2.005803    0.142251
H      -1.049897    1.823945   -0.607132
H      -0.876688    1.786821    1.167698
H      -2.086943   -0.228967   -0.456194
H      -0.118364   -2.520019    0.008940
H      -1.751582   -2.677402   -0.653580
H       0.217724   -1.036381   -1.792398
H      -2.096500    0.004578    2.027262
H      -2.825625   -1.507348    1.457460
H      -0.194336   -0.275951    3.783457
H       0.782670   -1.770885    3.708257
H       0.792053   -0.583861    2.358000
