12

O       0.074176    1.335612    0.020723
C       0.066909   -0.008646    0.078611
N       0.098796   -0.756679   -1.025144
N       0.079303   -2.019479   -0.570028
C       0.036158   -2.093272    0.783620
C       0.009372   -3.381816    1.465094
O       0.023873   -4.443080    0.877429
C       0.026672   -0.784190    1.250980
H       0.104672    1.584566   -0.911805
H       0.096245   -2.801309   -1.204370
H      -0.025260   -3.324471    2.571932
H      -0.004306   -0.446307    2.273025
