18

C       0.358019    1.246355   -0.819856
C       0.110245   -0.050802   -0.207485
C      -0.094097   -1.124120    0.295726
C      -0.342263   -2.421730    0.918558
C      -1.611516   -3.076806    0.445954
N      -2.586524   -3.413740    1.184755
C      -3.580651   -4.038991    0.298377
C      -2.960619   -3.938204   -1.120224
O      -1.669118   -3.332222   -0.888053
H       1.398477    1.338558   -1.150415
H      -0.281779    1.398567   -1.696093
H       0.158975    2.063905   -0.118241
H       0.493190   -3.102009    0.704143
H      -0.415487   -2.327951    2.005606
H      -3.755576   -5.074945    0.608403
H      -4.536589   -3.511327    0.376781
H      -2.802771   -4.905858   -1.603833
H      -3.524952   -3.291392   -1.798230
