16

O      -0.880739    1.192856    0.092221
C       0.274012    0.933072   -0.126867
C       1.451026    1.905425   -0.213952
O       2.554533    1.428195   -0.447772
N       1.247593    3.234789   -0.034811
C       2.393414    4.166679   -0.120925
C       1.774237    5.565452    0.131838
C       0.308965    5.264444    0.341366
C       0.070648    3.957010    0.238324
H       0.638066   -0.099645   -0.300496
H       3.143265    3.883433    0.621999
H       2.861865    4.070259   -1.103569
H       2.221931    6.053809    1.004840
H       1.936960    6.238819   -0.717442
H      -0.442069    6.013310    0.547040
H      -0.855125    3.414437    0.331849
