20

C       0.028575    1.598403   -0.029114
C       0.013530    0.068126   -0.008866
C       0.687408   -0.523053    1.233362
C       0.739205   -2.056339    1.222732
O       1.412731   -2.557078    0.077454
C       1.357729   -2.604485    2.529380
C       1.372249   -4.059178    2.604047
C       1.370872   -5.259066    2.667699
H       1.053704    1.985861   -0.016796
H      -0.462245    1.988648   -0.926077
H      -0.490382    2.015253    0.841586
H      -1.022986   -0.290689   -0.058097
H       0.513008   -0.327143   -0.899578
H       1.715000   -0.135743    1.316859
H       0.162560   -0.187882    2.138124
H      -0.279769   -2.451648    1.134008
H       2.336206   -2.285783    0.133199
H       2.382937   -2.216542    2.622621
H       0.803086   -2.195767    3.383775
H       1.372769   -6.319429    2.718766
