23

C       0.155987    1.412984   -0.380749
C       0.169172   -0.035220    0.038345
O       1.440504   -0.630946    0.329447
C       0.468433   -0.546285    1.391764
C       0.833303    0.376993    2.534404
C      -0.107631   -1.899994    1.789659
C       0.880144   -2.778356    2.533608
C       0.933445   -2.798892    4.042546
C       0.396952   -3.990007    3.287996
H       0.799521    2.031329    0.247014
H       0.507010    1.505168   -1.414182
H      -0.863453    1.812360   -0.338906
H      -0.471445   -0.671238   -0.578726
H       1.276560    1.307174    2.177131
H      -0.053538    0.619465    3.130661
H       1.556077   -0.108641    3.195999
H      -1.004115   -1.748134    2.406120
H      -0.432703   -2.415656    0.878337
H       1.832009   -2.885845    2.020920
H       1.899716   -2.886777    4.527267
H       0.221904   -2.183754    4.584293
H      -0.672890   -4.170521    3.323311
H       0.996385   -4.893007    3.254157
