21

C      -0.172960    1.687388   -0.008617
C      -0.233213    0.156281   -0.039535
C       0.686917   -0.464568   -1.083746
O       0.247112   -0.034939   -2.372743
C       2.186275   -0.177877   -0.943109
O       2.775661   -1.074028   -1.887272
C       2.055224   -2.310166   -1.809206
C       0.718505   -2.016025   -1.082500
O       0.732420   -2.469879    0.264443
H       0.808477    2.048168    0.317947
H      -0.372979    2.100929   -1.000177
H      -0.916011    2.087961    0.687277
H       0.015458   -0.263509    0.938135
H      -1.256233   -0.165285   -0.268310
H       0.994543   -0.144551   -2.973491
H       2.465614    0.838256   -1.229173
H       2.532705   -0.385544    0.079304
H       1.918707   -2.684778   -2.828930
H       2.629535   -3.052114   -1.236794
H      -0.149161   -2.406535   -1.627048
H       0.797652   -3.429675    0.260466
