25

C       0.403904    1.586909    0.131858
C       0.245277    0.066460    0.024342
C       0.608211   -0.512303   -1.362563
C      -0.356759   -0.026552   -2.446002
O       1.928188   -0.049517   -1.721966
C       2.895282   -1.091542   -1.611719
C       2.197195   -2.265533   -0.921655
C       0.736613   -2.062349   -1.351372
C      -0.292425   -2.840130   -0.532367
H       1.407771    1.886929   -0.178285
H      -0.316565    2.120093   -0.495893
H       0.246276    1.918121    1.162975
H       0.885971   -0.406574    0.778411
H      -0.784541   -0.217584    0.272128
H      -0.359374    1.063945   -2.513968
H      -0.057122   -0.421550   -3.420846
H      -1.379733   -0.357428   -2.236108
H       3.241325   -1.375211   -2.617061
H       3.763041   -0.718366   -1.055298
H       2.600180   -3.235181   -1.226301
H       2.291619   -2.195511    0.167836
H       0.652221   -2.387197   -2.397421
H      -0.218517   -2.617139    0.536305
H      -1.315500   -2.616227   -0.853164
H      -0.140446   -3.917533   -0.654530
