16

C      -0.018056    1.457758    0.017606
C      -0.000544    0.002321    0.008237
C       0.021779   -1.201654   -0.004233
C       0.044281   -2.643878   -0.016533
C      -0.499643   -3.379766    1.217621
C      -1.303243   -3.381571   -0.039649
C       1.144142   -3.258191   -0.718642
C       2.056342   -3.781865   -1.300986
H       0.888054    1.862895   -0.446258
H      -0.877375    1.853031   -0.535622
H      -0.070059    1.851473    1.038870
H       0.020108   -4.286822    1.501481
H      -0.823077   -2.752430    2.039257
H      -2.185521   -2.755434   -0.092400
H      -1.341456   -4.289887   -0.628688
H       2.865777   -4.234234   -1.817789
