21

C      -0.292118    1.520219    0.094540
C       0.017335    0.034599   -0.097510
O       0.677302   -0.200717   -1.343109
C       0.808887   -0.531477    1.065641
C       0.120911   -1.202702    2.232872
C       0.960955   -2.017748    1.278812
C       0.330215   -3.037947    0.345518
C       0.282929   -4.410912    0.980563
O      -0.694124   -5.110857    1.044264
H       0.635443    2.100263    0.180841
H      -0.856186    1.904218   -0.759454
H      -0.874143    1.686810    1.006345
H      -0.928070   -0.510888   -0.190441
H       1.516214    0.273142   -1.322146
H       1.687542    0.062807    1.314589
H       0.488692   -1.018278    3.236054
H      -0.957003   -1.322275    2.172025
H       1.933301   -2.325944    1.657292
H      -0.685017   -2.765032    0.049538
H       0.932255   -3.111392   -0.571633
H       1.257775   -4.752018    1.405175
