16

N       0.075209    1.386889   -0.086397
C      -0.027038   -0.006578   -0.047312
C      -1.135679   -0.793825    0.135924
C      -2.571772   -0.511361    0.334509
O      -3.334806   -1.237266   -0.638800
N      -0.624231   -2.105810    0.195576
C       0.705691   -2.005772    0.013968
O       1.470256   -3.109354   -0.027465
N       1.124180   -0.771059   -0.115628
H       0.952100    1.662978   -0.509671
H      -0.696096    1.831888   -0.566530
H      -2.901338   -0.802314    1.347110
H      -2.732308    0.574254    0.249336
H      -4.263457   -1.168747   -0.392676
H      -1.169940   -2.948911    0.142433
H       2.373388   -2.803858   -0.178910
