16

C      -0.141779    1.559959    0.027308
C       0.051720    0.051057    0.070763
C       1.196409   -0.649743   -0.756461
C       2.217760   -0.125336    0.309771
C       0.986793   -0.603431    1.168068
O       0.837310   -0.542961    2.529778
C       0.994765   -1.810610    0.227689
O       0.898888   -2.999797    0.276786
H       0.787847    2.129814    0.082305
H      -0.652738    1.847182   -0.897381
H      -0.772366    1.873899    0.865445
H      -0.919991   -0.444768   -0.023560
H       1.317161   -0.670716   -1.834274
H       3.149502   -0.682508    0.422155
H       2.395329    0.948034    0.304112
H       0.739055   -1.443110    2.861980
