15

O      -0.076915    1.334196    0.010868
C       0.076357   -0.022229   -0.013411
C       0.936585   -0.909899   -0.898587
N       0.037333   -2.070176   -0.506875
C       0.390230   -2.264613    0.953669
C      -0.250528   -0.916859    1.246431
C      -0.640557   -0.314303    2.472153
N      -0.928268    0.178691    3.480088
C      -1.011535   -1.031581   -0.067339
H       0.546295    1.720667    0.637654
H       0.796433   -0.682769   -1.958080
H       1.998846   -1.055956   -0.678669
H      -0.178791   -3.101507    1.364262
H       1.457387   -2.401999    1.153911
H      -2.064285   -1.027919   -0.310108
