17

C      -0.225276    1.400288    0.279879
C       0.141209   -0.030606    0.057675
O      -0.628078   -1.053889    0.682617
C       0.791748   -1.046034    0.908286
C       1.457623   -1.726848   -0.299183
O       1.259056   -3.082432   -0.517151
C       0.733792   -0.670582   -1.241206
C      -0.298766   -1.176984   -2.202444
O      -0.866965   -2.239758   -2.087238
H       0.591732    2.062392   -0.023528
H      -1.114953    1.672635   -0.298363
H      -0.443408    1.571485    1.337234
H       1.120418   -0.997589    1.940683
H       2.536837   -1.541612   -0.297640
H       0.330620   -3.189474   -0.775949
H       1.432331    0.002989   -1.745770
H      -0.553784   -0.497029   -3.044750
