21

C      -0.062869    1.480540   -0.047863
C       0.013453   -0.032392    0.017043
C       0.780983   -0.714540   -1.137006
O       1.014394   -2.050257   -0.660607
C       0.432307   -2.105325    0.642169
C       0.878641   -3.357320    1.349481
C       0.728268   -0.709455    1.207137
O      -0.989921   -2.100897    0.514493
C      -1.341795   -0.768198    0.107465
H       0.937083    1.925927   -0.074018
H      -0.597538    1.813759   -0.944924
H      -0.589651    1.887320    0.821611
H       0.201847   -0.745040   -2.068413
H       1.741526   -0.220596   -1.339143
H       1.966777   -3.369343    1.442450
H       0.428904   -3.408565    2.343431
H       0.565265   -4.233377    0.776439
H       1.796643   -0.487536    1.264458
H       0.248858   -0.526641    2.171866
H      -2.005197   -0.315273    0.857288
H      -1.870488   -0.797458   -0.853511
