18

C       0.272191    0.722873    1.236835
C      -0.022622   -0.058470   -0.028108
C       0.672767    0.308040   -1.274552
O       1.075086   -0.837026   -0.527953
C      -1.361710   -0.757337   -0.061529
C      -2.578092    0.030606   -0.459617
N      -2.094206   -1.042586   -1.313113
C      -1.591723   -1.847896    0.946237
O      -0.891134   -2.084196    1.895960
H       1.266963    1.170911    1.175505
H      -0.463359    1.521632    1.379326
H       0.237799    0.058709    2.101850
H       0.249746    0.101843   -2.257250
H       1.361340    1.152735   -1.255826
H      -3.532601   -0.153013    0.026901
H      -2.402699    1.064247   -0.748121
H      -1.590019   -0.675580   -2.113899
H      -2.507313   -2.438877    0.724252
