20

C      -0.011616    1.574782   -0.116372
N       0.076550    0.133504    0.010952
C       1.065213   -0.611933   -0.849910
C       1.151490   -1.625593    0.339812
O       2.223196   -2.178921    1.105058
C       2.061550   -1.385644    2.319096
C       2.107379    0.042100    1.756628
C       0.725397   -0.450050    1.186019
C       0.507169   -1.161404    2.551827
H       0.959927    2.086618    0.001129
H      -0.414181    1.832324   -1.101391
H      -0.700460    1.966739    0.638963
H       0.653558   -0.976966   -1.794301
H       1.988376   -0.047457   -1.033951
H       0.370057   -2.380060    0.209070
H       2.719152   -1.761492    3.100044
H       1.987028    0.823957    2.509183
H       2.931592    0.267002    1.078603
H      -0.149948   -2.033271    2.567123
H       0.337028   -0.521074    3.419764
