19

C      -0.035695    1.356823    0.043887
O       0.004933   -0.048073    0.006544
C       0.652064   -0.548167   -1.142622
C       0.638416   -2.069107   -1.078698
C       1.317745   -2.709242   -2.281307
O       1.255908   -4.110678   -2.134312
C       1.859692   -4.799884   -3.200715
H       0.974740    1.796965    0.050709
H      -0.582798    1.774996   -0.816674
H      -0.551558    1.645843    0.962865
H       0.140384   -0.193014   -2.055095
H       1.689153   -0.170675   -1.192660
H       1.141100   -2.396777   -0.162876
H      -0.397382   -2.419072   -1.020116
H       0.820654   -2.400376   -3.218356
H       2.369160   -2.378205   -2.355446
H       1.371942   -4.575760   -4.163327
H       2.929583   -4.552951   -3.296154
H       1.762200   -5.869157   -2.997445
