19

C      -0.123547    1.548345    0.105732
C       0.132177    0.074176   -0.024365
O      -0.749564   -0.797323    0.737953
C       0.649984   -0.816719    1.030837
C       1.410965   -1.959334    0.370128
C       1.223416   -1.685842   -1.115421
C       1.719880   -2.639378   -2.160154
O       1.315304   -2.317662   -3.476939
C       0.547131   -0.550291   -1.321919
H       0.749214    2.124217   -0.219722
H      -0.974302    1.850305   -0.515234
H      -0.351868    1.808561    1.142039
H       0.925027   -0.469713    2.024029
H       2.471591   -1.947572    0.654754
H       1.012416   -2.937829    0.665362
H       2.818372   -2.638328   -2.176304
H       1.424633   -3.666922   -1.883651
H       0.352085   -2.323076   -3.488725
H       0.305780   -0.132035   -2.291204
