15

O      -0.050423    1.442569    0.032316
C       0.036686    0.067076   -0.034651
C       1.221092   -0.636245    0.697889
N       0.977236   -2.094798    0.666527
C       1.567080   -1.429144   -0.513239
C       0.388768   -0.784075   -1.312429
N      -0.935905   -1.384815   -1.202528
C      -1.303517   -0.730203   -0.030098
O      -2.276783   -0.794985    0.662930
H       0.838461    1.815241    0.046057
H       1.843806   -0.185002    1.462198
H       1.734422   -2.542284    1.181840
H       2.532520   -1.725523   -0.904122
H       0.637699   -0.327646   -2.270106
H      -1.231103   -2.311400   -1.478007
