25

C       0.023656    1.531151   -0.038005
C       0.028277   -0.002630    0.037278
C       0.756864   -0.468419    1.306472
C      -1.394784   -0.579469   -0.044204
C      -2.196555   -0.177396   -1.315412
C      -3.061004   -1.383486   -1.581022
C      -2.679574   -2.453584   -0.881047
C      -3.267537   -3.828373   -0.926028
C      -1.478701   -2.130004   -0.016064
H       1.043017    1.928794    0.008054
H      -0.433896    1.893936   -0.962926
H      -0.536155    1.960708    0.801949
H       0.586195   -0.382822   -0.832299
H       0.230052   -0.126000    2.205804
H       0.830725   -1.558584    1.359260
H       1.773597   -0.063390    1.346371
H      -1.955778   -0.206944    0.824487
H      -2.773862    0.742998   -1.171117
H      -1.526297    0.015058   -2.168215
H      -3.874034   -1.374856   -2.300420
H      -4.112134   -3.885086   -1.618466
H      -2.520732   -4.569533   -1.240096
H      -3.617226   -4.144737    0.065296
H      -0.572307   -2.590904   -0.440477
H      -1.571831   -2.529637    1.000978
