16

C       0.154993    1.532714   -0.029881
O       1.278232    0.634372   -0.057558
C      -0.018721    0.080706   -0.000558
C      -0.514260   -0.847696    1.157236
N      -1.046682   -1.699447    0.078778
C      -1.810965   -2.729338   -0.376665
C      -1.839961   -2.586161   -1.759638
C      -1.099287   -1.424337   -2.137034
C      -0.624900   -0.905674   -0.951342
H       0.044047    2.113580    0.885022
H      -0.030201    2.076502   -0.954669
H       0.282663   -1.312388    1.744209
H      -1.279269   -0.426833    1.816301
H      -2.245129   -3.475485    0.268246
H      -2.339419   -3.261861   -2.438466
H      -0.947457   -1.053663   -3.137939
