20

C      -0.078972    1.524820    0.021357
C       0.094525    0.006852    0.030624
C       1.057146   -0.614550   -1.012447
C       2.425197    0.027871   -0.661472
C       2.283969   -0.800189    0.622254
C       1.520812   -1.899263   -0.185057
C       0.585566   -2.121094    1.012320
C       0.829745   -0.607574    1.249701
H       0.844133    2.059815    0.258944
H      -0.427291    1.877309   -0.956283
H      -0.825654    1.824697    0.764731
H      -0.900151   -0.444746   -0.064156
H       0.709146   -0.687488   -2.043406
H       3.230255   -0.377562   -1.282785
H       2.515391    1.116310   -0.625795
H       3.102793   -1.021453    1.306420
H       2.023962   -2.696633   -0.731772
H      -0.445131   -2.458021    0.858788
H       1.070142   -2.752665    1.763441
H       0.676869   -0.144151    2.224861
