18

N      -0.192432   -1.168555    0.521734
C      -0.108593   -0.030106    0.339958
C      -0.026909    1.392533    0.084225
O       0.596255    2.191753    1.088713
C       1.276925    2.054075   -0.161691
C       2.585736    1.325515   -0.175171
C       3.202731    0.962292   -1.558333
C       4.596737    1.345599   -0.992255
C       3.880374    2.132977    0.138003
H      -0.928888    1.816436   -0.353822
H       1.233916    2.952960   -0.781235
H       2.517427    0.442060    0.464908
H       3.051316   -0.056122   -1.921360
H       2.877902    1.661304   -2.336441
H       5.128759    0.472923   -0.603949
H       5.272299    1.900749   -1.646109
H       3.762009    3.190963   -0.118458
H       4.279465    2.064416    1.151737
