17

O       0.054383    1.453728    0.056157
C      -0.010186    0.064829    0.000413
C      -0.437757   -0.748070    1.166552
O      -1.421680   -0.003282    1.902843
C      -2.373191   -0.143203    0.797073
C      -3.076747    1.150767    0.409655
C      -3.918058    1.699012    1.544181
O      -3.907613    2.843680    1.911999
C      -1.297469   -0.745947   -0.098895
H      -0.253674    1.704251    0.937861
H       0.796764   -0.358642   -0.591901
H       0.115787   -1.512954    1.699176
H      -3.112445   -0.901422    1.089417
H      -2.374659    1.909718    0.063475
H      -3.761748    0.912582   -0.418205
H      -4.582334    0.945074    2.029753
H      -1.458825   -1.509878   -0.847846
