15

C       0.012367    1.511741    0.091104
C      -0.068664    0.020136    0.017526
C      -0.034694   -0.807934   -1.086877
N      -0.133525   -2.083112   -0.637984
N      -0.247952   -2.162524    0.704228
C      -0.197936   -0.895883    1.086628
O      -0.301096   -0.526696    2.399266
C       0.276818   -1.328319    3.345165
O       0.139462   -1.112242    4.507863
H       0.858919    1.837828    0.704638
H       0.132286    1.946556   -0.904476
H      -0.889955    1.940991    0.539167
H       0.051861   -0.581249   -2.138192
H      -0.157581   -2.931237   -1.176591
H       0.858673   -2.148030    2.897419
