19

N       0.138033    1.398096   -0.264475
C      -0.005646    0.000746   -0.082063
C      -1.091185   -0.828096    0.142534
C      -0.577273   -2.157649    0.240391
C       0.787027   -2.097536    0.074532
N       1.123108   -0.786287   -0.120195
C      -2.495984   -0.381788    0.253039
C      -3.637376   -1.227036   -0.276465
C      -3.464868   -1.051455    1.207177
H      -0.190473    1.922068    0.540109
H      -0.378998    1.731018   -1.071723
H      -1.147596   -3.058382    0.413483
H       1.535195   -2.873537    0.079411
H       2.044228   -0.412986   -0.271040
H      -2.621675    0.691626    0.140586
H      -4.466027   -0.724460   -0.763932
H      -3.379667   -2.186841   -0.711107
H      -3.089866   -1.891891    1.781282
H      -4.174890   -0.428153    1.740313
