17

C      -0.252459    1.495275    0.040108
N       0.110557    0.088383    0.022018
C       1.186980   -0.379523   -0.889887
C       1.855795   -1.102968    0.287170
O       2.310644   -2.406439    0.237890
C       2.224473   -0.130967    1.357359
O       2.780099    1.110004    1.022824
C       0.760346   -0.509329    1.179589
H       0.602400    2.180339    0.149681
H      -0.775321    1.746395   -0.889372
H      -0.949456    1.672432    0.866419
H       0.810592   -1.064932   -1.656215
H       1.784989    0.413473   -1.354178
H       3.259921   -2.388892    0.073006
H       2.676649   -0.625778    2.220372
H       2.511587    1.747610    1.692514
H       0.177061   -0.946306    1.984873
