19

C       0.077697    1.572109    0.034670
C       0.023078    0.073696   -0.006122
C      -0.975355   -0.767813    0.751530
C       0.502847   -0.965419    0.997089
N       1.169816   -1.732929   -0.053578
C       0.858873   -3.150180   -0.151977
C       1.590008   -3.775438   -1.259811
N       2.147359   -4.265018   -2.145157
C       0.651948   -0.800754   -1.100989
H       1.087035    1.939907   -0.180158
H      -0.602431    2.013697   -0.703419
H      -0.215652    1.951214    1.018754
H      -1.501089   -0.250554    1.548606
H      -1.571441   -1.522516    0.243707
H       0.965557   -0.848933    1.971778
H       1.163710   -3.636401    0.782265
H      -0.214816   -3.371933   -0.291016
H      -0.050739   -1.247370   -1.817035
H       1.470098   -0.328458   -1.652869
