23

O       0.021030    1.641999    0.412876
C      -0.054025    0.262306    0.059988
C       0.720614   -0.647626    1.051880
C      -0.351069   -1.364594    1.920688
C      -1.679851   -0.669608    1.563608
C      -1.501632   -0.280100    0.094157
C      -2.553694    0.596625   -0.633324
C      -2.458840   -0.343406   -1.865977
C      -1.741459   -1.394574   -0.976679
H      -0.322396    1.743723    1.306947
H       0.368787    0.224585   -0.948116
H       1.347855   -1.368911    0.520608
H       1.395757   -0.023461    1.644221
H      -0.407695   -2.424062    1.650971
H      -0.125874   -1.324718    2.989790
H      -2.558205   -1.300098    1.732084
H      -1.822556    0.232968    2.176458
H      -3.533385    0.544641   -0.148089
H      -2.283532    1.645601   -0.770780
H      -3.396738   -0.649813   -2.334592
H      -1.804753    0.059144   -2.644005
H      -0.858261   -1.888420   -1.393472
H      -2.426253   -2.167175   -0.613050
