19

C       0.065786    1.508921   -0.124292
C       0.097867    0.016449    0.076838
O       1.369676   -0.629921    0.117057
C       0.553933   -0.675571    1.310913
C       1.105271    0.059392    2.518615
C       2.314345   -0.650079    3.123214
O       2.744192    0.128753    4.229900
C      -0.022621   -1.973971    1.595144
C      -0.510690   -3.041903    1.854088
H       0.828277    2.022162    0.463167
H       0.241979    1.739733   -1.180203
H      -0.917912    1.907551    0.145287
H      -0.642633   -0.530139   -0.510524
H       1.404490    1.071976    2.240827
H       0.321813    0.141928    3.279963
H       2.033705   -1.668046    3.431484
H       3.101073   -0.736959    2.359002
H       3.512509   -0.300452    4.616968
H      -0.938967   -3.988605    2.074100
