16

N       0.048307    1.375743   -0.138252
C      -0.008155   -0.015003   -0.067658
C      -1.217518   -0.708789    0.005019
C      -1.187383   -2.100649    0.006129
C       0.020618   -2.787395   -0.065364
N       0.124462   -4.187466   -0.133470
C       1.167260   -1.980074   -0.129180
O       2.371065   -2.610436   -0.186031
N       1.166659   -0.659220   -0.126815
H       0.957500    1.739520    0.109810
H      -0.702292    1.858273    0.333289
H      -2.159450   -0.174498    0.051848
H      -2.115948   -2.661903    0.059189
H      -0.586432   -4.668956    0.400791
H       1.045165   -4.514898    0.126579
H       3.035307   -1.909384   -0.216086
