20

C       0.806456    1.266451   -0.466273
C       0.022941    0.093106    0.125124
O      -0.135091   -0.969559   -0.816154
C       1.009045   -1.803763   -0.765169
C       1.631126   -1.633620    0.661544
C       3.024794   -1.199793    0.601560
N       4.129126   -0.860684    0.545789
C       0.670742   -0.603048    1.342183
C       1.288007    0.298730    2.407259
H       1.845377    1.003131   -0.687475
H       0.329461    1.586118   -1.396623
H       0.815776    2.116212    0.223016
H      -0.990621    0.427311    0.371419
H       0.685498   -2.832311   -0.946739
H       1.740027   -1.532056   -1.537198
H       1.612540   -2.579750    1.209050
H      -0.119891   -1.202994    1.805018
H       2.119422    0.888060    2.012984
H       0.535818    0.988816    2.802693
H       1.669162   -0.290597    3.246781
