19

C      -0.652005    1.269502   -0.005885
C       0.134139   -0.026833   -0.121518
C       1.522606    0.004847   -0.828095
C       2.073604   -0.873101    0.299302
O       3.061874   -1.524538    0.448915
C       0.799547   -0.649514    1.179987
C       1.109305    0.356313    2.306586
C       0.167904   -1.846698    1.695309
C      -0.360703   -2.846405    2.105369
H      -0.050253    2.078037    0.420585
H      -0.991742    1.597916   -0.993848
H      -1.539110    1.140979    0.622925
H      -0.491843   -0.797349   -0.578442
H       1.599461   -0.408957   -1.836123
H       1.988658    0.997123   -0.826751
H       1.637034    1.235649    1.925136
H       0.186357    0.688568    2.789477
H       1.742155   -0.120443    3.058768
H      -0.819967   -3.731548    2.470271
