17

O      -0.018283    1.425647   -0.039956
C       0.033028    0.038698   -0.070258
C       0.427059   -0.829600   -1.262209
N      -0.323907   -1.942430   -0.555946
C       0.590185   -2.145137    0.619739
C       0.403579   -0.769769    1.271669
C      -1.117031   -0.823949    1.579138
C      -1.239967   -0.833016    0.056297
H       0.856679    1.762649    0.180806
H      -0.105323   -0.533930   -2.170586
H       1.473576   -1.052059   -1.495459
H       0.246649   -2.972748    1.247100
H       1.602633   -2.368490    0.274467
H       1.130942   -0.395899    1.992899
H      -1.497866   -1.662379    2.169165
H      -1.497953    0.122472    1.969852
H      -2.157805   -0.685820   -0.509279
