19

C      -0.110065    1.586999    0.028427
C       0.040061    0.060672    0.033770
O       0.688066   -0.421083   -1.142956
C       2.045604   -0.045580   -1.269716
C       2.832681   -0.211773   -0.001809
C       2.238580   -0.425048    1.171119
C       0.761409   -0.454277    1.272622
C       0.091595   -0.408904    2.582174
O       0.209772   -1.643871    1.885624
H       0.852041    2.091161    0.160139
H      -0.547006    1.911237   -0.920088
H      -0.768625    1.910426    0.839603
H      -0.949766   -0.404819    0.008295
H       2.458368   -0.691637   -2.053646
H       2.143924    0.991287   -1.639517
H       3.914807   -0.156004   -0.084717
H       2.809650   -0.590657    2.079832
H       0.688215   -0.315857    3.489976
H      -0.918553   -0.004741    2.655723
