17

C      -0.193277    1.450199    0.121297
C       0.054027   -0.017573   -0.084238
C      -0.081692   -0.621839   -1.275395
C       0.150798   -2.028425   -1.545423
C       0.056656   -3.019161   -0.650898
N      -0.311256   -2.884078    0.698844
C       0.087668   -1.908308    1.600010
O       0.096908   -2.121935    2.794417
N       0.487208   -0.676250    1.090397
H       0.695464    1.944177    0.536723
H      -0.441168    1.941766   -0.820618
H      -1.014175    1.619552    0.829498
H      -0.387216   -0.000833   -2.110876
H       0.414726   -2.306327   -2.560653
H       0.245061   -4.046863   -0.943719
H      -0.510305   -3.740489    1.192942
H       0.707755   -0.065486    1.863808
