23

C       0.027960    1.577524   -0.068724
C       0.032663    0.041454   -0.040463
C       0.800689   -0.517978   -1.248618
C       0.548616   -1.998359   -1.555756
C       1.205215   -2.998760   -0.596201
C       0.769203   -2.960727    0.849420
C       0.479968   -1.916445    1.630338
C       0.565558   -0.436879    1.327290
O       1.907402    0.031648    1.554299
H       1.045112    1.965362    0.038424
H      -0.387624    1.952025   -1.009574
H      -0.572249    1.988524    0.750268
H      -1.007911   -0.307752   -0.106637
H       0.515038    0.067018   -2.131022
H       1.875656   -0.337828   -1.108834
H      -0.533471   -2.182424   -1.579821
H       0.919047   -2.217041   -2.564712
H       1.026201   -4.011024   -0.976845
H       2.298692   -2.870592   -0.641037
H       0.721970   -3.940008    1.324167
H       0.230260   -2.137375    2.666224
H      -0.032840    0.082954    2.086009
H       2.503140   -0.678063    1.296495
