19

C       0.013518    1.608436   -0.183604
C       0.018345    0.124773   -0.015399
C       0.081045   -1.031846   -0.950027
O       1.178980   -1.684938   -0.316888
C       0.843140   -0.906657    0.865715
C      -0.492441   -1.537277    1.348364
C      -1.035381   -0.921972    2.623781
O      -0.165927   -1.298097    3.684780
C      -1.077796   -0.943681    0.067024
H       1.003857    1.981257   -0.468333
H      -0.691256    1.901912   -0.969445
H      -0.287284    2.122328    0.736467
H      -0.042045   -1.117402   -2.022196
H       1.681787   -0.727052    1.534007
H      -0.462823   -2.628689    1.437950
H      -1.088566    0.174065    2.520013
H      -2.060768   -1.282306    2.802882
H      -0.527910   -0.956681    4.507499
H      -2.114760   -0.867412   -0.238987
