19

C       2.073977    0.581152   -0.770382
C       1.117515   -0.478763   -0.268627
C       1.603542   -1.754773    0.384907
C       0.830009   -0.733271    1.185199
C       1.477453    0.053530    2.294301
O       1.563619   -0.784679    3.440099
O      -0.536846   -1.007304    1.455676
C      -0.814210   -2.051679    2.277054
O      -1.928600   -2.285950    2.638006
H       2.988766    0.626958   -0.172815
H       2.371459    0.360862   -1.800900
H       1.614313    1.575279   -0.762447
H       0.228871   -0.604637   -0.881080
H       1.107713   -2.684570    0.131467
H       2.663267   -1.851735    0.598128
H       2.473373    0.393699    1.980330
H       0.863014    0.941653    2.497557
H       1.623065   -0.229054    4.222345
H       0.078161   -2.637390    2.544212
