17

C      -0.118047   -1.253257    0.187130
C      -0.052568   -0.057392    0.080007
C       0.009222    1.398034   -0.048156
N      -0.591003    2.092517    1.112130
C       0.468690    2.634174    1.832917
N       1.614709    2.650723    1.273332
C       1.449857    1.992297   -0.003444
C       2.630941    1.330610   -0.648522
C       2.085081    2.617365   -1.219907
H      -0.167911   -2.310052    0.282050
H      -0.505952    1.695365   -0.968512
H      -1.307503    1.593520    1.620846
H       0.270962    3.063135    2.810580
H       3.565335    1.372389   -0.101166
H       2.455656    0.407564   -1.190293
H       1.538452    2.573976   -2.156970
H       2.649626    3.528336   -1.058813
