17

C       0.301107    1.505949    0.187923
C      -0.139062    0.058920   -0.074874
C       0.467416   -0.514523   -1.327721
C       0.145913    0.047650   -2.705439
O       0.444616   -0.995067   -3.648836
C       0.722773   -2.178698   -3.029377
O       0.834622   -3.211871   -3.619617
C       0.834418   -1.918809   -1.549201
O       1.839286   -0.924111   -1.273213
H       1.390292    1.570011    0.265635
H      -0.021841    2.179189   -0.613043
H      -0.129263    1.875079    1.122618
H       0.153333   -0.577163    0.766665
H      -1.231781    0.004127   -0.154201
H      -0.914160    0.309253   -2.798030
H       0.757209    0.919443   -2.953481
H       0.729023   -2.729551   -0.837494
