15

C       0.008738    1.406332   -0.052250
N       0.004667   -0.032816    0.008155
N       0.048744   -0.792621   -1.147428
C      -0.014385   -2.020287   -0.660415
N      -0.080122   -3.143180   -1.464481
N      -0.061907   -2.120842    0.701772
C      -0.044252   -0.850922    1.075746
N      -0.143195   -0.398064    2.382490
H       1.020421    1.809712   -0.181297
H      -0.603301    1.725149   -0.898302
H      -0.424500    1.802983    0.869346
H       0.294259   -2.993752   -2.390336
H       0.299674   -3.965559   -1.018734
H      -0.095347   -1.175668    3.027419
H       0.528196    0.316116    2.632109
