15

O      -0.197212    0.121172    0.380036
C      -0.080938    1.253479    0.041397
O      -1.025060    2.079533   -0.504662
C      -0.097408    3.213691   -0.541442
C       1.022970    2.334456    0.062120
C       1.630262    2.671747    1.449935
N       3.036738    2.898947    1.098404
C       3.204572    2.396047   -0.173230
N       2.153504    2.085160   -0.834942
H       0.083112    3.538080   -1.566588
H      -0.465592    4.032139    0.081740
H       1.181245    3.555302    1.911892
H       1.517324    1.820757    2.132914
H       3.751777    2.742191    1.792666
H       4.205873    2.325210   -0.587765
