19

C      -0.201403    0.783003    1.262440
O       0.019430    0.152950    0.017277
C       1.140832   -0.701927   -0.022369
C       0.883192   -2.084235    0.574330
N       1.923845   -3.079736    0.241467
C       1.841675   -3.691747    1.582092
C       1.127879   -2.404401    2.096480
C       1.995164   -1.476493    2.801937
N       2.678384   -0.733146    3.366103
H       0.697211    1.305520    1.619156
H      -1.002573    1.510967    1.112505
H      -0.518937    0.076770    2.044391
H       1.375832   -0.850848   -1.082926
H       2.020549   -0.239709    0.449370
H      -0.140360   -2.389101    0.309320
H       1.714133   -3.691507   -0.539472
H       1.176357   -4.562324    1.656861
H       2.806698   -3.936217    2.033770
H       0.224651   -2.569550    2.685490
