24

C      -0.850858    1.508974   -0.357864
O      -0.687149    0.114609   -0.442832
C      -1.812284   -0.601172    0.036367
C      -1.491141   -2.079878   -0.020168
C      -0.342539   -2.477638    0.889923
C      -2.575790   -3.077881   -0.310026
C      -4.039779   -2.745301   -0.516339
N      -1.525691   -2.806677   -1.295390
C      -1.823038   -2.124364   -2.545523
H       0.060771    1.970760   -0.744882
H      -1.707697    1.859298   -0.955949
H      -1.003876    1.840233    0.681836
H      -2.026493   -0.314637    1.081004
H      -2.699836   -0.337668   -0.554527
H      -0.591672   -2.288485    1.941040
H      -0.115523   -3.539231    0.769841
H       0.553636   -1.900851    0.645157
H      -2.446095   -4.051775    0.165816
H      -4.214241   -1.771200   -0.975572
H      -4.511596   -3.500409   -1.155126
H      -4.564532   -2.757565    0.445154
H      -2.644204   -1.394120   -2.514121
H      -0.923379   -1.596917   -2.874273
H      -2.076472   -2.875583   -3.301100
