12

O       0.054206    0.054515    0.156873
C      -0.052477    1.232298    0.057821
C      -1.122458    2.242754   -0.058888
C      -0.655443    3.570024    0.642213
N       0.346897    3.483494    1.696408
C       1.268297    2.758302    1.202912
N       1.040745    2.270301   -0.145971
C      -0.053477    3.177882   -0.640937
H      -2.160782    2.094168   -0.320879
H      -1.419735    4.330901    0.733521
H       2.149788    2.428481    1.739457
H      -0.001668    3.655160   -1.609759
