20

C      -0.148816    1.538797    0.070443
C       0.094242    0.060467    0.010390
N      -0.755023   -0.887769    0.774518
C       0.714363   -0.897270    0.976233
C       1.258204   -1.784567   -0.142924
C       0.668808   -0.736827   -1.173418
O      -0.285445   -1.179121   -2.102695
C       1.775764    0.017964   -1.902463
O       2.329488   -0.901954   -2.840645
H       0.708491    2.109741   -0.302154
H      -1.022759    1.818191   -0.529000
H      -0.333527    1.858556    1.101979
H      -1.160988   -0.346387    1.538957
H       1.146573   -0.702601    1.950424
H       2.345553   -1.866233   -0.191682
H       0.798880   -2.773097   -0.193394
H       0.218596   -1.525730   -2.850646
H       1.340892    0.886086   -2.418557
H       2.536709    0.377284   -1.194251
H       2.879462   -0.415720   -3.460786
