16

C       0.006536    1.576226    0.107117
C       1.488825    1.895390   -0.060297
C       2.164252    0.797170   -0.445187
C       3.147134    0.156579    0.495344
C       2.415752   -0.791559    1.107046
C       1.087687   -1.013640    0.408346
C      -0.001464    0.057076   -0.101415
C       1.200856   -0.299332   -0.895754
H      -0.297238    1.889469    1.115136
H      -0.691456    2.067003   -0.589790
H       1.944038    2.713679    0.489383
H       4.110367    0.542219    0.800158
H       2.727319   -1.372498    1.967477
H       0.658688   -2.010367    0.455212
H      -0.955770   -0.423393   -0.302853
H       1.245380   -0.757458   -1.879553
