18

C      -0.431367    1.564808    0.175628
C      -0.056656    0.097484    0.023035
C       0.629992   -0.466140   -1.254299
C       1.736593    0.253706   -2.051846
C       2.759597    0.958024   -1.187304
C       2.768436   -0.536488   -1.237153
N       1.678214   -1.125783   -0.408609
C       1.220834   -0.411739    0.745647
O       1.726374   -0.228572    1.813505
H       0.364924    2.229112   -0.168566
H      -1.332709    1.796145   -0.400238
H      -0.631629    1.793058    1.226742
H      -0.913143   -0.534384    0.286012
H       0.037882   -1.146217   -1.870916
H       1.703735    0.410888   -3.122263
H       3.551226    1.429625   -1.761778
H       2.509298    1.485557   -0.273510
H       3.613762   -1.138542   -1.544336
