18

N      -0.149442   -1.085744    0.594995
C      -0.105490    0.022794    0.271460
C      -0.024570    1.431021   -0.129418
C       1.394548    1.965635   -0.107260
C       1.981022    2.435349   -1.206915
C       3.362596    3.030126   -1.192386
O       3.859219    3.267289    0.107886
C       3.624520    2.177094    0.982931
C       2.125687    1.968503    1.213644
H      -0.458647    1.536322   -1.128907
H      -0.660534    2.008158    0.556083
H       1.476302    2.404708   -2.169846
H       4.049862    2.375125   -1.760268
H       3.362266    4.001271   -1.701672
H       4.068048    1.254706    0.574204
H       4.140265    2.416002    1.916450
H       1.726848    2.760357    1.862765
H       1.961472    1.020359    1.741048
