22

C      -0.027349    1.415420    0.360842
O      -0.052454    0.029545    0.077792
C      -1.294049   -0.574344    0.367737
C      -1.192960   -2.052500    0.109373
C      -2.388670   -2.791525   -0.366792
N      -1.243888   -2.571103   -1.264232
C       1.350735    1.949813    0.088115
C       1.742926    2.336625   -1.313673
C       1.526648    3.404180   -0.271065
H      -0.768307    1.948449   -0.261819
H      -0.310157    1.589717    1.413856
H      -1.574649   -0.391863    1.420351
H      -2.094313   -0.138316   -0.258737
H      -0.473880   -2.569114    0.741249
H      -2.545767   -3.823344   -0.066416
H      -3.303292   -2.226556   -0.531998
H      -1.444062   -1.809940   -1.909351
H       2.126038    1.501641    0.702381
H       2.755873    2.128558   -1.638782
H       0.995465    2.227996   -2.092441
H       0.636780    4.020288   -0.351515
H       2.390311    3.926935    0.123979
