15

O       0.237594    1.085048   -0.338266
C       0.066607   -0.151870    0.334809
C      -1.295647   -0.678953    0.235212
C      -2.410062   -1.118058    0.098758
C      -3.759389   -1.598666   -0.033494
N      -4.009805   -2.772038   -0.452785
N      -4.709183   -0.617168    0.353992
C      -6.074604   -0.752084    0.338489
O      -6.683149   -1.739048   -0.009133
H       0.021558    0.944869   -1.266446
H       0.773825   -0.915129   -0.024182
H       0.313618    0.040461    1.384647
H      -5.018747   -2.930330   -0.472752
H      -4.335123    0.264749    0.671745
H      -6.574591    0.170176    0.690169
