18

C      -0.030654    1.595023   -0.060911
C       0.023563    0.074028    0.006024
N      -1.328086   -0.446138   -0.123042
C       1.126473   -0.661156   -0.832908
N       1.682718   -1.373074    0.376096
C       2.176455   -0.314829    1.258284
C       0.711911   -0.559084    1.240400
C       0.013316   -1.114706    2.361111
N      -0.554483   -1.547975    3.271199
H       0.951327    2.047995    0.093055
H      -0.390114    1.916258   -1.045729
H      -0.721662    1.979862    0.693708
H      -1.735861   -0.148670   -1.004319
H      -1.336145   -1.462115   -0.113254
H       0.710015   -1.384599   -1.536379
H       1.873457   -0.043732   -1.343162
H       2.723400   -0.690846    2.116916
H       2.571313    0.602683    0.827916
