19

O      -0.044990    1.436089    0.297913
C       0.045782    0.042547    0.028466
C       0.651580   -0.725509    1.217233
C      -0.044298   -1.842697    1.434900
C      -0.878529   -2.310062    2.612552
C      -2.091533   -1.896227    1.689344
C      -2.238019   -0.378213    1.300272
C      -1.371446   -0.564726   -0.010664
C      -1.177952   -2.030148    0.433904
H       0.835882    1.815141    0.221011
H       0.564609   -0.119910   -0.931242
H       1.305468   -0.227080    1.925841
H      -0.905259   -3.394027    2.771137
H      -0.723309   -1.802805    3.568591
H      -3.022236   -2.450720    1.828509
H      -3.274964   -0.130799    1.063826
H      -1.863713    0.355863    2.015203
H      -1.914417   -0.357490   -0.935991
H      -1.176110   -2.883936   -0.244624
