11

O      -0.083843    0.032086   -0.000855
C      -0.002562    1.231875    0.007504
C       1.279528    1.982009   -0.000637
N       2.457258    1.409160   -0.018129
O       3.359039    2.417632   -0.020105
N       2.763922    3.647084   -0.003858
C       1.471529    3.404586    0.008517
C       0.489915    4.420294    0.027230
C      -0.373075    5.256913    0.043230
H      -0.895425    1.888661    0.022330
H      -1.127049    6.006256    0.057237
