17

C      -0.092355    1.614537    0.083564
C       0.064818    0.098176    0.118278
O       1.175845   -0.395062   -0.727972
C       1.666820   -1.206640    0.352741
C       2.200129   -0.306148    1.404223
O       2.818790    0.901942    1.095135
C       0.699984   -0.575530    1.347582
C      -1.172726   -0.567975   -0.282798
C      -2.205581   -1.099705   -0.590311
H       0.808538    2.104282    0.452542
H      -0.305163    1.942835   -0.937971
H      -0.935887    1.906851    0.715602
H       1.949061   -2.228146    0.125328
H       2.674565   -0.799623    2.248645
H       2.739725    1.001350    0.136466
H       0.140433   -1.011460    2.163906
H      -3.113715   -1.573125   -0.872200
