14

O       0.478448    1.249006    0.328974
C       0.229534   -0.062964    0.148130
C       0.291240   -0.670021   -1.109522
C       0.023394   -2.024451   -1.222583
C      -0.301363   -2.744249   -0.071376
N      -0.363212   -2.179784    1.127880
C      -0.107009   -0.869559    1.256260
C      -0.212774   -0.370687    2.655081
O      -0.031230    0.761679    3.029773
H       0.690638    1.653702   -0.520285
H       0.547775   -0.076500   -1.983458
H       0.064806   -2.518033   -2.187328
H      -0.517207   -3.807672   -0.123312
H      -0.490138   -1.193215    3.348584
