21

C       0.035805    1.603472   -0.035056
C       0.024138    0.072702   -0.040564
C       0.757283   -0.499182   -1.264554
C       0.993889   -1.981510   -1.161855
C       0.914874   -2.668670   -0.022574
C       0.580015   -2.042995    1.313454
C       0.627992   -0.501829    1.252125
C      -0.790604   -2.552868    1.745501
O      -0.971567   -3.436636    2.542148
H       1.058503    1.988198    0.057347
H      -0.388708    2.007112   -0.960423
H      -0.546252    2.002094    0.802439
H      -1.021979   -0.257567   -0.105174
H       0.189986   -0.275759   -2.177193
H       1.723444    0.013967   -1.392583
H       1.263464   -2.501794   -2.078220
H       1.088616   -3.741399   -0.015791
H       1.282101   -2.415492    2.068345
H       1.677482   -0.188719    1.322608
H       0.120934   -0.075634    2.126685
H      -1.648795   -2.052052    1.240370
