18

O       0.012658    1.308564    0.383111
C      -0.020579   -0.089730    0.150444
C      -1.482303   -0.567086   -0.023636
O      -2.247532   -0.088017    1.061004
C      -1.992850    0.029443   -1.292650
N      -2.335577    0.537412   -2.273148
C      -1.574576   -2.082061   -0.089577
C      -1.603000   -2.886578    1.185333
C      -2.837364   -2.788530    0.324741
H      -0.167471    1.757145   -0.452136
H       0.589915   -0.384019   -0.712282
H       0.379686   -0.565715    1.049106
H      -1.898198    0.794213    1.256560
H      -1.030842   -2.500505   -0.931024
H      -1.050648   -3.819094    1.205050
H      -1.612229   -2.337015    2.118629
H      -3.648375   -2.174244    0.696166
H      -3.143344   -3.653129   -0.252547
