15

O       0.074490    1.303393    0.078205
C      -0.006062   -0.085500   -0.005012
C      -1.361760   -0.686078    0.034916
C      -2.530763    0.274037   -0.152488
C      -2.328901    0.923941   -1.518650
O      -2.939992    1.838951   -1.994530
C      -1.186793    0.153411   -2.255918
O      -0.933807    0.277260   -3.426114
C      -0.547618   -0.759270   -1.271916
H       0.820093    1.605301   -0.452262
H       0.797754   -0.629680    0.488955
H      -1.514774   -1.583878    0.621474
H      -3.479016   -0.275492   -0.176454
H      -2.605409    1.033015    0.629579
H      -0.062123   -1.658367   -1.629332
