15

C      -0.070077    1.453683    0.128875
C       0.047162   -0.054981   -0.074528
C       0.771834   -0.417124   -1.350246
O       1.227552    0.346286   -2.160874
O       0.855623   -1.768654   -1.487177
C       1.529528   -2.195152   -2.674432
C       1.537934   -3.656532   -2.689362
N       1.563449   -4.809676   -2.734344
H       0.916658    1.920972    0.175201
H      -0.615466    1.919264   -0.695688
H      -0.599648    1.670116    1.060202
H       0.578517   -0.535882    0.755172
H      -0.936979   -0.537268   -0.105776
H       1.020616   -1.811122   -3.564456
H       2.554739   -1.811405   -2.693523
