17

C      -0.063773    1.383541   -0.007104
O      -0.005233   -0.036893    0.054810
C       0.569721   -0.642381   -1.000416
N       0.683464   -1.895046   -1.039756
C       1.315343   -2.471120   -2.208479
C       2.548602   -3.297766   -1.784575
C       3.186414   -3.965389   -2.911129
C       3.690454   -4.501754   -3.861598
H       0.939320    1.826108   -0.034894
H      -0.634201    1.724566   -0.879504
H      -0.572207    1.709193    0.900915
H       0.909230    0.043640   -1.793468
H       0.602567   -3.143415   -2.699935
H       1.620825   -1.717700   -2.953584
H       3.266141   -2.635473   -1.284667
H       2.232781   -4.031123   -1.033728
H       4.145190   -4.984543   -4.690519
