21

C       0.101768    1.208412    0.319125
O      -0.034378   -0.152363   -0.053340
C      -1.382029   -0.603023   -0.150636
C      -1.361364   -1.998272   -0.769719
C      -1.030646   -2.932773    0.414402
C      -1.832994   -2.348645    1.591594
C      -1.337393   -2.662916    3.001455
C      -1.892707   -0.845369    1.291034
O      -2.223241    0.017792    2.066621
H       1.172900    1.424193    0.323594
H      -0.394850    1.868169   -0.408611
H      -0.316725    1.409925    1.311709
H      -1.997563    0.130843   -0.688543
H      -2.354769   -2.230013   -1.171451
H      -0.640497   -2.058926   -1.587889
H      -1.274699   -3.978331    0.210587
H       0.040587   -2.877722    0.635945
H      -2.877846   -2.687689    1.500278
H      -0.284229   -2.384515    3.112814
H      -1.914121   -2.098340    3.738945
H      -1.431255   -3.729499    3.226079
