22

C      -0.101387    1.498676   -0.131738
C      -0.034830    0.009417    0.163602
O      -1.312270   -0.550799   -0.083406
C      -1.392017   -1.966483    0.014563
C      -1.386368   -2.448695    1.467627
C      -2.676928   -2.380379   -0.705474
C      -2.685712   -1.922316   -2.176317
C      -3.912773   -2.295859   -2.873844
N      -4.888719   -2.600456   -3.412853
H       0.869431    1.966753    0.056034
H      -0.375631    1.674073   -1.175926
H      -0.848238    1.982141    0.504215
H       0.719737   -0.479349   -0.475219
H       0.270800   -0.154902    1.207917
H      -0.529167   -2.410054   -0.514220
H      -1.479361   -3.538417    1.510380
H      -0.459069   -2.175887    1.978247
H      -2.223853   -2.006420    2.016209
H      -2.786450   -3.467988   -0.653063
H      -3.534684   -1.941939   -0.184415
H      -2.564774   -0.836032   -2.214947
H      -1.835042   -2.357045   -2.715152
