16

N      -0.147052    1.470932   -0.051950
C      -0.067495    0.043141   -0.027423
C      -0.472874   -0.673316    1.242407
C      -0.907758    0.058809    2.389098
C      -1.277716    0.670452    3.357174
C      -1.401712   -0.711393   -0.015502
N      -2.598132    0.059176   -0.090041
C      -1.435789   -1.985551   -0.696025
N      -1.434240   -3.017214   -1.219787
H       0.322308    1.886736    0.744519
H       0.243775    1.852087   -0.904217
H       0.731269   -0.438455   -0.587499
H       0.067248   -1.591989    1.449543
H      -1.600784    1.201059    4.218533
H      -3.216032   -0.136575    0.690623
H      -2.339864    1.043255   -0.056485
