18

O      -0.514651    1.135037    0.936967
C      -0.065674    0.085563    0.089776
C       0.897915   -0.888234    0.805977
C       0.002672   -1.858568    1.568751
O      -0.550857   -1.292775    2.803126
C      -1.823450   -1.251114    2.261753
N      -2.915579   -0.909135    2.770079
C      -1.401029   -1.794824    0.909631
C      -1.296161   -0.778402   -0.241133
H       0.248939    1.524545    1.373780
H       0.391769    0.501816   -0.819450
H       1.474343   -1.449692    0.060520
H       1.615319   -0.378709    1.457857
H       0.450595   -2.832632    1.773570
H      -2.794930   -0.594845    3.734453
H      -1.886426   -2.730389    0.632003
H      -2.190838   -0.160987   -0.343411
H      -1.135213   -1.309363   -1.185200
