19

C       0.149865    1.383043    0.043002
N       0.057586   -0.068665    0.058556
C      -1.215641   -0.622267    0.046175
C      -2.468196   -0.048927    0.182420
C      -3.361576   -1.156717    0.165786
N      -4.740809   -1.127920    0.322880
C      -5.473101    0.036016   -0.143070
N      -2.732355   -2.315023    0.013716
N      -1.407498   -1.958422   -0.065763
H       1.203344    1.671765    0.055229
H      -0.334419    1.846328   -0.830386
H      -0.321125    1.785250    0.944885
H       0.683508   -0.506604   -0.604053
H      -2.700273    0.998605    0.261225
H      -5.152704   -2.008604    0.046517
H      -6.540389   -0.123951    0.030053
H      -5.179270    0.919532    0.433073
H      -5.322939    0.263671   -1.210910
H      -0.709326   -2.678792   -0.017435
