13

C       0.018279    1.402497   -0.052827
O      -0.005326   -0.005890    0.013580
C       0.616506   -0.608938   -1.074670
C       0.556608   -2.124924   -0.941629
O       0.039629   -2.701721   -0.016758
C       1.189221   -2.830136   -2.047913
C       1.714636   -3.403192   -2.966700
H       1.047707    1.793326   -0.066786
H      -0.505259    1.777908   -0.945933
H      -0.490325    1.774060    0.839071
H       0.143506   -0.334685   -2.036380
H       1.680195   -0.319225   -1.166866
H       2.174804   -3.924227   -3.771160
