17

C      -0.241972    1.471940    0.025422
C       0.020943   -0.007631    0.108425
N       0.267003   -0.639427    1.190316
O       0.251659    0.205445    2.306070
C       0.006907   -0.813101   -1.166182
C      -0.069117   -2.363042   -1.075577
C      -1.393935   -2.236447   -1.862908
O      -2.198146   -2.988168   -2.340780
N      -1.303591   -0.860279   -1.844927
H       0.436165    2.018172    0.685319
H      -0.125863    1.838485   -0.997662
H      -1.261558    1.699006    0.356916
H       0.477944   -0.397630    3.022286
H       0.804118   -0.451784   -1.830148
H       0.715692   -2.901390   -1.608516
H      -0.170605   -2.748950   -0.062533
H      -1.826417   -0.158169   -2.348098
