16

O      -0.201914    1.446040   -0.349617
C       0.015715    0.103233    0.063491
C      -1.333782   -0.570903    0.050282
C      -1.895702   -1.309712   -1.116299
O      -0.867848   -2.019921   -1.832130
C      -0.653347   -2.880282   -0.688794
C       0.751467   -3.019049   -0.290561
N       1.849692   -3.154420    0.042815
C      -1.611691   -2.057163    0.175066
H       0.655259    1.875992   -0.422180
H       0.705807   -0.415814   -0.612283
H       0.441488    0.059378    1.077687
H      -2.095800    0.004124    0.573641
H      -2.808387   -1.086463   -1.654042
H      -1.055223   -3.879188   -0.896573
H      -2.271944   -2.480980    0.918351
