16

O      -0.102581    1.362376   -0.152468
C      -0.213065   -0.021945   -0.149139
C      -0.458226   -0.798242    1.109419
O      -1.253155    0.008260    1.990512
C      -2.381234   -0.037782    1.063964
C      -1.528389   -0.761866    0.029419
O      -1.997623   -1.773082   -0.790680
C      -2.241747   -1.434708   -2.087250
N      -2.726890   -2.295106   -2.866887
H      -0.268242    1.646707    0.757146
H       0.457917   -0.504468   -0.855813
H       0.159601   -1.577252    1.539807
H      -3.182133   -0.663264    1.469037
H      -2.756379    0.959530    0.812089
H      -1.968040   -0.398328   -2.318181
H      -2.843456   -1.896825   -3.796470
