14

O       0.146175    0.245199    1.041871
C      -0.017235    1.228717    0.353561
C       1.106150    1.767810   -0.447980
N       1.978889    2.202546   -1.069715
C      -1.275323    1.958743    0.211528
C      -2.468476    1.677358    1.114624
C      -2.624716    1.390237   -0.324751
O      -2.878058    2.545540   -1.094449
C      -1.602705    3.132641   -0.709391
H      -2.318022    0.814476    1.754391
H      -2.994463    2.520820    1.552328
H      -2.834166    0.419477   -0.759805
H      -1.721894    4.115366   -0.242237
H      -0.941780    3.203174   -1.578335
