16

C      -0.033633    1.477955    0.008992
C       0.055563   -0.023214    0.002773
N       1.183836   -0.617095   -0.009255
N      -1.171036   -0.692511    0.011050
C      -1.465776   -2.134761    0.008139
C      -2.976049   -1.768990    0.023104
C      -2.514380   -0.300014    0.023680
O      -3.037828    0.778223    0.032389
H       0.977562    1.883219    0.001290
H      -0.590061    1.838671   -0.860745
H      -0.574082    1.832295    0.891347
H       1.076168   -1.633571   -0.011964
H      -1.115097   -2.648304   -0.891686
H      -1.099064   -2.655148    0.897577
H      -3.541144   -2.058264   -0.864307
H      -3.524937   -2.064195    0.918703
