21

C      -0.275804    1.616642   -0.251681
C       0.024303    0.140810    0.025256
C       0.954204   -0.463939   -1.072844
C       0.357375   -1.656286   -1.809089
O       0.150162   -2.701180   -0.865566
N       0.525542    0.026195    1.399918
C       0.593730   -1.339785    1.911423
C       1.120812   -1.349202    3.279074
N       1.559597   -1.363364    4.347640
H       0.645989    2.211153   -0.233547
H      -0.729188    1.742388   -1.240070
H      -0.954504    2.020406    0.503072
H      -0.923213   -0.412467    0.008553
H       1.201604    0.302678   -1.815896
H       1.905045   -0.775288   -0.623313
H      -0.593541   -1.362084   -2.282578
H       1.037666   -1.980594   -2.611098
H      -0.265115   -3.443550   -1.313883
H       1.438740    0.465309    1.473566
H      -0.419943   -1.757441    1.926305
H       1.191711   -2.037997    1.304478
