18

C      -0.057889    1.526970   -0.041027
C       0.018000    0.018037   -0.030675
O      -1.108418   -0.636194   -0.539961
C       1.351673   -0.673105   -0.166053
C       0.635962   -0.664060    1.168726
N       1.034414    0.016029    2.416713
C       0.498505   -1.118020    3.241573
C       0.089425   -1.838021    1.938492
O      -0.399199   -2.893629    1.667808
H       0.777263    1.971580    0.504924
H      -0.044823    1.907353   -1.069192
H      -0.987043    1.853518    0.434495
H      -1.071486   -0.593651   -1.502043
H       1.377983   -1.629728   -0.678509
H       2.245244   -0.062969   -0.260118
H       2.044985    0.073285    2.498675
H       1.239317   -1.662024    3.837353
H      -0.333331   -0.822472    3.888657
