20

C      -0.126549    1.544227    0.007577
C      -0.067361    0.029400    0.089311
C      -1.310990   -0.639788   -0.485143
O      -1.499774   -0.297559   -1.853559
N       1.248847   -0.568369   -0.172205
C       0.729847   -0.630923    1.204871
C       1.439182    0.171989    2.279099
C       0.295680   -1.982674    1.675983
O       0.205429   -2.960755    0.969243
H       0.858152    1.994661    0.132329
H      -0.509137    1.823363   -0.977823
H      -0.806800    1.953292    0.762489
H      -1.272694   -1.724991   -0.352370
H      -2.200817   -0.263373    0.031750
H      -0.775076   -0.683687   -2.356704
H       1.137571   -1.505677   -0.566658
H       1.724551    1.159751    1.920484
H       0.795953    0.297812    3.157210
H       2.351721   -0.341409    2.600561
H       0.083108   -2.047241    2.764967
