19

O      -0.675806    0.487444    0.118675
C      -0.140227    1.547615   -0.071583
C       1.353292    1.809814    0.050685
C       1.895177    2.654034   -1.143587
C       2.144818    4.064228   -0.580954
C       3.141856    5.011354   -1.208297
C       1.670698    5.317492   -1.292503
C       2.008926    3.925417    0.889835
C       1.607289    2.706147    1.250209
H      -0.729669    2.455310   -0.344427
H       1.843248    0.835510    0.141899
H       2.828249    2.210486   -1.503196
H       1.198850    2.663370   -1.988761
H       3.758581    5.616662   -0.551875
H       3.646645    4.677164   -2.109351
H       1.174401    5.190907   -2.249378
H       1.277477    6.130186   -0.690669
H       2.223592    4.742372    1.570871
H       1.427394    2.369625    2.264148
