21

C      -0.028821    1.566422    0.043035
C       0.074337    0.051641    0.263033
C      -1.275911   -0.621551    0.090749
C      -1.851714   -1.169010   -1.194291
C      -0.957739   -1.617547   -2.361145
C      -0.196837   -2.848240   -1.875112
O       0.736786   -2.605030   -0.816000
C      -0.563103   -3.113566   -0.473292
C      -1.588766   -2.104444   -0.015250
H       0.942285    2.051544    0.182746
H      -0.375482    1.796825   -0.970463
H      -0.734816    2.027344    0.743650
H       0.812627   -0.379857   -0.410891
H       0.442175   -0.145935    1.278105
H      -2.042093   -0.110922    0.675692
H      -2.864534   -0.875426   -1.450354
H      -1.586377   -1.901300   -3.212311
H      -0.273113   -0.838405   -2.714962
H       0.107086   -3.618088   -2.581505
H      -0.562176   -4.108061   -0.035149
H      -2.400278   -2.495951    0.588809
