16

N       0.300939    1.179567    0.643094
C       0.024385   -0.111999    0.155040
C      -1.180455   -0.592321   -0.305502
N      -1.010757   -1.940544   -0.593978
C       0.276518   -2.288702   -0.337411
O       0.660733   -3.570382   -0.602075
C       1.438283   -4.194546    0.326499
N       1.960209   -5.303804    0.042091
C       0.962830   -1.192684    0.130823
H       1.218740    1.504153    0.364009
H      -0.385499    1.858585    0.338774
H      -2.130249   -0.105942   -0.450868
H      -1.707713   -2.570453   -0.949241
H       1.512822   -3.627309    1.260807
H       2.485597   -5.653776    0.840649
H       2.005910   -1.155137    0.401852
