23

C       0.097566    1.573904   -0.016994
C       0.010750    0.046719    0.017722
C       0.745852   -0.631684   -1.163313
O       1.258646   -1.873477   -0.675907
C       1.532666   -1.723980    0.694772
C       0.720334   -0.572742    1.227620
C       0.401676   -2.004271    1.659373
C      -0.845746   -2.713016    1.175111
C       0.812788   -2.352678    3.078901
H       1.139880    1.908979    0.031936
H      -0.338875    1.974622   -0.938116
H      -0.439943    2.019801    0.825616
H      -1.046349   -0.242408    0.002325
H       0.099222   -0.850245   -2.018737
H       1.573636    0.008495   -1.510121
H       2.565559   -1.919085    0.972679
H       1.122484    0.102050    1.976683
H      -0.980990   -2.608287    0.097335
H      -0.775920   -3.785259    1.390574
H      -1.742380   -2.333495    1.679092
H       0.040948   -2.054227    3.798286
H       0.970267   -3.432065    3.186963
H       1.742430   -1.849532    3.364791
