20

C       0.008014    1.570888   -0.110293
C       0.026014    0.047481    0.065413
C      -1.358871   -0.564258    0.065857
C      -2.303029   -0.339005    1.291822
C      -2.591053   -1.868208    1.353622
C      -1.663451   -2.104428    0.122958
C      -2.417894   -1.891287   -1.201977
O      -3.104002   -2.559694   -1.927920
N      -2.064036   -0.553035   -1.228482
H       1.021718    1.981040   -0.089141
H      -0.441871    1.852052   -1.068548
H      -0.565334    2.058333    0.685682
H       0.612675   -0.412837   -0.738389
H       0.522115   -0.209460    1.009544
H      -1.779977    0.037136    2.174847
H      -3.160843    0.308393    1.096617
H      -2.207898   -2.336010    2.262331
H      -3.628197   -2.181307    1.217675
H      -0.902377   -2.881450    0.169156
H      -2.538669    0.206416   -1.699826
