16

O       0.022615    1.444019    0.281411
C       0.047550    0.047121    0.036521
C       0.614920   -0.681486    1.274127
C      -0.221128   -1.676085    1.622317
C      -1.319558   -1.348230    2.637908
C      -2.132380   -1.052356    1.319198
C      -1.364826   -0.543515    0.034698
C      -1.248738   -1.951414    0.508900
H       0.892204    1.801410    0.075011
H       0.530263   -0.159020   -0.932390
H       1.145381   -0.075361    2.004406
H      -1.791856   -2.192762    3.153228
H      -1.114419   -0.537863    3.342693
H      -3.218957   -1.015158    1.289043
H      -2.039505   -0.289905   -0.780979
H      -1.458027   -2.874834   -0.013958
