21

C       0.070628    1.605217    0.064068
C       0.022066    0.075323   -0.022085
C       0.700915   -0.532212   -1.261517
C       2.187007   -0.387739   -1.473335
C       1.642032   -1.636435   -0.821837
C       1.623082   -1.654843    0.698790
C       1.974344   -2.916926    1.436259
O       2.090034   -0.421980    1.286548
C       0.672532   -0.630439    1.164572
H       1.103800    1.953590    0.143896
H      -0.376029    2.061999   -0.824570
H      -0.476820    1.969776    0.939860
H      -1.030096   -0.241857   -0.035939
H       0.086361   -0.653856   -2.147367
H       2.542964   -0.477001   -2.494351
H       2.750171    0.291268   -0.846584
H       1.699388   -2.588482   -1.336701
H       3.014389   -3.201843    1.243182
H       1.852328   -2.780921    2.513635
H       1.334724   -3.745203    1.112635
H       0.139845   -0.693242    2.112998
