16

C       0.040229    1.496188    0.047082
C       0.031416   -0.000028    0.018100
C       0.010040   -0.817039   -1.083799
O      -0.017662   -0.573552   -2.419143
N       0.011959   -2.125999   -0.684986
C       0.036161   -2.184703    0.687868
C       0.050042   -0.888146    1.159717
C       0.069389   -0.486879    2.514447
C       0.083767   -0.113280    3.660780
H       1.026960    1.904888    0.297384
H      -0.253732    1.924522   -0.919174
H      -0.662662    1.879430    0.793780
H       0.034853    0.377876   -2.553331
H      -0.002931   -2.907454   -1.316705
H       0.038163   -3.123554    1.214241
H       0.098082    0.204816    4.673058
