16

O      -0.157416    1.364810    0.081413
N       0.038744   -0.029657   -0.011653
C      -1.063652   -0.641820   -0.085683
C      -2.558751   -0.364614   -0.007596
O      -3.003815   -0.898305   -1.268673
C      -2.635109   -2.271069   -1.034225
C      -3.555688   -2.658627    0.142356
C      -2.660981   -1.668896    0.903184
C      -1.426478   -2.089841   -0.010852
H       0.748085    1.690672    0.120917
H      -3.005949    0.598774    0.214406
H      -2.562647   -2.820325   -1.970474
H      -4.621893   -2.453877    0.024002
H      -3.387357   -3.680773    0.490987
H      -2.598187   -1.556622    1.982610
H      -0.745296   -2.910212    0.192807
