21

C      -0.135772    1.531405    0.043856
C      -0.017214    0.004497   -0.007299
C      -1.430603   -0.549088   -0.216899
C       1.183970   -0.644355   -0.794694
C       2.147966   -0.125313    0.311969
C       0.909800   -0.708128    1.074964
C       1.032132   -1.918185    0.087189
C       0.690940   -0.749561    2.491802
C       0.484081   -0.769513    3.677545
H       0.808800    2.060743    0.165949
H      -0.600688    1.899399   -0.877736
H      -0.787449    1.826282    0.873841
H      -1.863236   -0.127798   -1.131359
H      -1.490645   -1.634044   -0.298110
H      -2.076093   -0.245539    0.614799
H       1.350942   -0.613197   -1.872088
H       3.073461   -0.691458    0.438376
H       2.338032    0.942730    0.388117
H       0.161263   -2.554822   -0.050371
H       1.934827   -2.520969    0.209001
H       0.307184   -0.790703    4.724189
