16

C      -0.126964    1.494049    0.046763
N      -0.076702    0.050186   -0.121742
C      -1.166857   -0.753796   -0.034356
C      -1.158195   -2.122456    0.046463
N      -2.326176   -2.823885    0.083290
C      -3.449413   -2.179508    0.042939
C      -3.553198   -0.731417   -0.036449
N      -4.567041    0.031595   -0.080808
O      -2.321466   -0.070191   -0.063205
H       0.833621    1.909598   -0.263237
H      -0.910626    1.915017   -0.584410
H      -0.324555    1.793137    1.084490
H       0.805113   -0.405843    0.044253
H      -0.227816   -2.675250    0.077407
H      -4.379878   -2.741069    0.073607
H      -5.417108   -0.529192   -0.053558
