18

N       0.012629    1.333796    0.208862
C      -0.048519   -0.008824    0.064917
C      -1.153799   -0.803245    0.060988
C      -0.769817   -2.187793   -0.102747
O      -1.495519   -3.163827   -0.245405
C       0.769791   -2.269700   -0.111775
C       1.254672   -3.117402   -1.299429
O       0.806480   -4.446353   -1.202228
C       1.229110   -0.801431   -0.109954
H       0.875902    1.821961    0.045036
H      -0.827705    1.886808    0.208836
H      -2.181865   -0.473365    0.131685
H       1.082431   -2.780581    0.805995
H       0.922001   -2.635847   -2.237921
H       2.351219   -3.140947   -1.323224
H      -0.136189   -4.389480   -0.971296
H       1.710306   -0.522734   -1.057788
H       1.946567   -0.573546    0.686203
