19

C      -0.072215    1.455438   -0.104652
C       1.319091    0.874690   -0.064407
C       0.112497   -0.029711    0.081983
C       0.495311   -0.789209   -1.213325
C       1.739090    0.143068   -1.364226
C       0.700331    0.049001   -2.425998
C       0.981470   -0.549403   -3.806060
C       0.069348    0.585179   -4.316085
O      -0.138345    1.078960   -2.975540
H      -0.351324    1.975517    0.807904
H      -0.492034    1.868766   -1.011389
H       2.042830    1.151957    0.690494
H      -0.229356   -0.551159    0.966166
H       0.446121   -1.870742   -1.283923
H       2.769839   -0.128999   -1.565853
H       2.022150   -0.497519   -4.132189
H       0.602206   -1.561592   -3.960013
H       0.552322    1.334231   -4.953615
H      -0.870674    0.267768   -4.781262
