18

C      -0.145188    1.485206   -0.032911
C       0.519960    0.126505   -0.061924
C       1.949888   -0.054330    0.376935
C       0.831108   -0.669811    1.190052
C       0.481948   -0.165861    2.583440
C       1.359107   -0.821933    3.626402
O       0.990194   -1.636271    4.433710
C       2.784494   -0.410440    3.600780
N       3.889632   -0.069609    3.602042
H       0.226067    2.110712    0.784330
H       0.052912    2.025736   -0.964484
H      -1.231916    1.399145    0.076649
H       0.208981   -0.490015   -0.901446
H       2.602622   -0.713259   -0.184060
H       2.454464    0.810195    0.796694
H       0.712690   -1.745690    1.092727
H       0.621363    0.918892    2.645171
H      -0.554125   -0.401442    2.844063
