17

O      -0.163712    0.034272   -0.114082
C      -0.002517    1.226026   -0.163054
C       1.343237    1.920642   -0.055364
C       1.460467    3.007756   -1.126715
C       1.904970    4.151186   -0.568585
C       0.841017    5.157703   -0.110595
C       1.005784    4.358280    1.238370
C       1.442217    2.832223    1.198551
C       2.394041    3.922348    0.871055
H      -0.867237    1.922231   -0.261787
H       2.112026    1.138837   -0.020782
H       0.769474    3.009722   -1.966277
H       1.171496    6.189111    0.054975
H      -0.113736    5.144374   -0.643224
H       0.692898    4.754388    2.201522
H       1.446376    2.373494    2.185584
H       3.353343    4.163705    1.308440
