19

C      -0.151961    1.376299    0.034543
O      -0.070482   -0.053203   -0.066128
C       0.708057   -0.519935   -1.058443
O       1.299590    0.191584   -1.833781
C       0.766991   -2.046084   -1.064847
C       1.509302   -2.549421    0.183551
C      -0.659145   -2.640683   -1.145654
C       1.501406   -2.458446   -2.344804
O       2.410583   -3.243891   -2.378093
H       0.838111    1.805637    0.205464
H      -0.566864    1.802465   -0.881992
H      -0.808028    1.575765    0.881491
H       0.959661   -2.280429    1.088130
H       1.615233   -3.635400    0.135413
H       2.514477   -2.123444    0.241007
H      -1.175040   -2.326466   -2.059087
H      -0.607770   -3.733461   -1.140876
H      -1.252971   -2.312853   -0.290241
H       1.093273   -2.001727   -3.270667
