20

C      -0.307129    1.504677    0.011329
C      -0.007990    0.010947    0.010251
C       1.235678   -0.426946   -0.793278
O       1.951652   -0.775221    0.407445
C       0.771003   -0.577937    1.226037
C       1.030880    0.252691    2.444990
C       0.106565    0.129193    3.635388
C       1.506202   -0.418299    3.710841
H       0.596629    2.096048    0.190218
H      -0.716221    1.813001   -0.956880
H      -1.039042    1.766112    0.782230
H      -0.915188   -0.550151   -0.229070
H       1.086064   -1.294982   -1.449509
H       1.746228    0.361626   -1.360924
H       0.361078   -1.551116    1.541055
H       1.438319    1.238881    2.247375
H      -0.130911    1.028890    4.191569
H      -0.712936   -0.579324    3.569241
H       1.634347   -1.495424    3.692622
H       2.233859    0.105420    4.320218
