19

O       0.050424    1.368349    0.062332
C       0.021768   -0.017849   -0.023658
C      -1.319302   -0.820539    0.040253
C      -0.896115   -1.558323   -1.262061
C       0.472419   -0.803647   -1.291147
C       1.695671   -1.585647   -0.834338
O       1.521851   -1.831985    0.565916
C       0.593127   -0.911796    1.121510
C      -0.830732   -1.505815    1.339423
H       0.968090    1.653144    0.144988
H      -2.297843   -0.342460    0.045729
H      -0.836411   -2.648499   -1.194032
H      -1.526185   -1.296444   -2.114728
H       0.645398   -0.206838   -2.187981
H       1.811938   -2.554389   -1.333194
H       2.616370   -1.004240   -1.006469
H       1.039928   -0.398851    1.979699
H      -1.309091   -1.079733    2.225722
H      -0.879081   -2.596358    1.389933
