14

C      -0.034719    1.486466    0.072903
C      -0.008392    0.000617   -0.020579
C      -0.029637   -0.803374   -1.093685
C       0.014010   -2.227334   -0.656465
O       0.011069   -3.236413   -1.319838
N       0.061471   -2.170436    0.741076
C       0.051210   -0.857603    1.202234
N       0.083110   -0.396497    2.387919
H       0.853087    1.853264    0.598306
H      -0.079550    1.946132   -0.916511
H      -0.896243    1.818300    0.661471
H      -0.071438   -0.527762   -2.137704
H       0.097889   -2.993535    1.319532
H       0.122254   -1.140714    3.087148
