21

C       0.431096    0.234004    1.002995
O      -0.061462   -0.654817    0.010791
C       0.730180   -0.798648   -1.132897
C       2.025360   -1.554667   -0.997828
C       0.813695   -2.212678   -1.629953
C       0.617447    0.323270   -2.177474
C      -0.858174    0.637663   -2.494225
C       1.359043    1.532945   -1.810113
C       1.970457    2.534066   -1.543959
H       1.470882    0.002958    1.269962
H       0.380686    1.279933    0.682309
H      -0.203168    0.095182    1.882280
H       2.858952   -1.272041   -1.631642
H       2.305506   -1.886987   -0.004819
H       0.290667   -2.957085   -1.041477
H       0.815418   -2.392109   -2.699769
H       1.084993   -0.065811   -3.092000
H      -0.931294    1.405987   -3.267598
H      -1.364457   -0.266543   -2.844425
H      -1.374657    0.990894   -1.599593
H       2.513424    3.413262   -1.299586
