18

O       0.127330    1.133610   -0.628099
C      -0.041423    0.068205    0.293147
C      -1.455288   -0.411549    0.326042
C      -1.925433   -1.818106    0.463891
C      -3.397322   -1.603942    0.874424
C      -3.417957   -0.393279    1.842934
C      -2.745902    0.367393    0.672087
C      -3.387457   -0.627619   -0.347667
N      -2.036628   -1.130350   -0.870808
H      -0.220353    0.814765   -1.469607
H       0.622150   -0.779441    0.057448
H       0.255409    0.458276    1.273520
H      -1.281939   -2.677302    0.611731
H      -4.051509   -2.467132    0.975353
H      -4.437721   -0.039252    2.024700
H      -2.876887   -0.474677    2.790664
H      -2.743328    1.450177    0.572649
H      -4.208266   -0.427913   -1.032803
