22

C      -0.434219    1.344778    0.134142
C       0.343946    0.037482   -0.033390
C       0.705583   -0.598917    1.301256
O       1.424775   -1.794973    1.052009
C       1.801947   -2.468456    2.209731
C       0.805826   -3.375690    2.895831
C       1.971363   -3.955330    2.113713
C       1.732906   -4.678667    0.806959
H       0.145802    2.086058    0.695047
H      -0.680257    1.783197   -0.837252
H      -1.374466    1.184223    0.673263
H      -0.243415   -0.683005   -0.614336
H       1.267225    0.213283   -0.597252
H       1.319388    0.093261    1.902738
H      -0.202000   -0.815949    1.887391
H       2.496843   -1.910315    2.840257
H       0.803617   -3.440304    3.978638
H      -0.173592   -3.451630    2.433940
H       2.781219   -4.361928    2.714131
H       0.961779   -4.175459    0.219603
H       2.644466   -4.705344    0.200042
H       1.416007   -5.712197    0.983220
