25

C      -0.892370    1.432736    0.062717
C      -0.022403    0.179135    0.052215
C      -0.887785   -1.081379   -0.015608
C       1.135524    0.162647   -0.997871
C       2.132516   -0.263630    0.104030
C       2.727752   -1.699775    0.157104
C       4.030137   -1.102841    0.753513
C       3.573144    0.289311    0.240712
C       1.064113    0.098390    1.173683
H      -0.281573    2.340717    0.110314
H      -1.510554    1.493175   -0.841169
H      -1.567978    1.439273    0.926660
H      -1.506994   -1.083168   -0.920423
H      -0.277545   -1.990291   -0.029625
H      -1.558753   -1.144178    0.849232
H       1.020696   -0.520449   -1.846287
H       1.356014    1.162341   -1.388103
H       2.191924   -2.448033    0.748543
H       2.889471   -2.102552   -0.848502
H       4.038655   -1.152049    1.845918
H       4.980904   -1.493272    0.383236
H       4.006625    0.524554   -0.737450
H       3.716427    1.151346    0.899305
H       1.254361    1.073865    1.633981
H       0.892353   -0.631928    1.971349
