19

C      -0.123974    1.640206   -0.283372
C      -0.109501    0.169023   -0.005577
C       0.461302   -0.999328   -0.778951
C       1.536590   -1.289530    0.325529
C       0.481591   -0.594471    1.197553
C      -0.435787   -1.380650    1.798498
C      -1.685749   -1.447618    0.935474
C      -1.091621   -0.874117   -0.369505
O      -1.934085   -0.618892   -1.447126
H       0.885792    2.064575   -0.264891
H      -0.558634    1.830304   -1.269278
H      -0.724202    2.178448    0.458847
H       0.664909   -1.005426   -1.848122
H       1.788189   -2.321732    0.586649
H       2.449361   -0.724023    0.102245
H      -0.148415   -2.235000    2.405764
H      -2.012644   -2.493800    0.867888
H      -2.564441   -0.856271    1.229132
H      -2.168961   -1.458900   -1.855968
