18

C       0.432219    1.824788    0.919739
N       0.987060    0.503230    0.712744
C       0.232307   -0.368530    0.192555
N       0.689741   -1.654745   -0.037202
C      -0.066339   -2.648407   -0.595108
N      -1.274417   -2.566500   -0.987752
C      -1.619689   -3.895598   -1.501976
C      -0.329235   -4.743259   -1.316529
O       0.608885   -3.822866   -0.713166
H       0.488031    2.085816    1.983133
H       1.033914    2.566017    0.380618
H      -0.615022    1.925028    0.592996
H      -0.806832   -0.224240   -0.119723
H       1.639885   -1.869037    0.224246
H      -2.467484   -4.313340   -0.947144
H      -1.921667   -3.834006   -2.553601
H      -0.455371   -5.592508   -0.639718
H       0.100383   -5.098916   -2.256931
