23

C       0.052819    1.568976    0.073853
C      -0.104760    0.048165   -0.019660
C       0.655527   -0.526922   -1.219599
N       0.717227   -1.991829   -1.229373
C      -0.611935   -2.588321   -1.353954
C       1.624754   -2.502808   -2.266560
C       3.062211   -1.955250   -2.165003
C       1.697152   -3.974113   -2.178442
N       1.787181   -5.125230   -2.136445
H       1.102371    1.854921    0.203958
H      -0.315712    2.063867   -0.831589
H      -0.508787    1.970642    0.922162
H       0.272727   -0.429926    0.891668
H      -1.170324   -0.194492   -0.085782
H       0.209634   -0.136974   -2.158081
H       1.676576   -0.141385   -1.173930
H      -1.133684   -2.277775   -2.279231
H      -0.533825   -3.677312   -1.354070
H      -1.230185   -2.303291   -0.501829
H       1.241577   -2.275234   -3.282603
H       3.112509   -0.909561   -2.471669
H       3.428158   -2.049258   -1.139502
H       3.717885   -2.528213   -2.824469
