20

C      -0.041152    1.536198    0.010700
N       0.130464    0.090527    0.108442
C       1.391286   -0.568691   -0.177510
C       2.574631    0.207950    0.365579
C       3.981917    0.122381   -0.018861
O       3.205867    1.296657   -0.296745
C       1.964843    0.247945    1.777886
C       0.776830   -0.574348    1.217267
C       0.058365   -1.658429    1.964355
H       0.822702    2.133142    0.327241
H      -0.255612    1.785612   -1.032669
H      -0.908339    1.825667    0.612751
H       1.421505   -1.335407   -0.945615
H       4.756436    0.241294    0.738218
H       4.273566   -0.460169   -0.892613
H       2.559567   -0.309204    2.506626
H       1.731723    1.234328    2.188082
H      -0.556622   -1.236876    2.768546
H      -0.602079   -2.210045    1.290722
H       0.765670   -2.359257    2.420710
