20

C       0.037753    1.510513   -0.050399
C      -0.018181    0.012455    0.030922
C      -1.153916   -0.689587    0.060892
C      -1.163472   -2.169834    0.077301
C      -2.160858   -2.888441    0.920934
N      -2.282617   -2.907063   -0.544184
C       0.203034   -2.761663   -0.217496
O       1.216828   -2.059900    0.479765
C       1.310216   -0.708793    0.079002
H       0.606795    1.840019   -0.929662
H      -0.963013    1.945456   -0.115104
H       0.541975    1.939311    0.825251
H      -2.118466   -0.182608    0.060741
H      -1.895811   -3.841540    1.371983
H      -2.863101   -2.293067    1.499423
H      -3.004698   -2.256172   -0.846164
H       0.262518   -3.805186    0.100569
H       0.379846   -2.724800   -1.305213
H       1.806107   -0.628722   -0.907612
H       1.974359   -0.222568    0.804036
