20

C      -0.058226    1.487890    0.046686
C       0.113079   -0.007057   -0.020481
N      -0.550205   -0.857053    1.015636
C       0.929470   -0.795405    0.942597
C       1.578345   -1.974667    0.222349
C       1.139343   -1.880408   -1.244876
C      -0.314819   -2.079771   -1.594651
O      -1.239297   -2.713169   -0.783191
C       0.206202   -0.666755   -1.383963
H       0.715625    1.994821   -0.539511
H      -1.031731    1.793153   -0.353071
H       0.012620    1.848653    1.078473
H      -0.888230   -0.275730    1.778218
H       1.445868   -0.327115    1.775376
H       2.667085   -1.886924    0.291480
H       1.294380   -2.929484    0.679718
H       1.882891   -2.106771   -2.002730
H      -0.489320   -2.338236   -2.636932
H      -1.239030   -2.220088    0.062561
H       0.259788    0.003219   -2.235523
