17

C      -0.020256    1.467838    0.027027
C      -0.000084   -0.025597   -0.018159
C      -0.033031   -0.810978   -1.119876
C       0.005490   -2.194289   -0.678187
C       0.062658   -2.276720    0.701638
C       0.064075   -0.878809    1.251660
C       0.094423   -3.652702    0.978265
N       0.059510   -4.374920   -0.148031
N       0.005137   -3.458293   -1.151494
H       0.875030    1.867049    0.520908
H      -0.069662    1.896493   -0.977633
H      -0.881296    1.841073    0.596306
H      -0.079786   -0.462999   -2.143712
H       0.962479   -0.639141    1.836046
H      -0.790961   -0.665291    1.906951
H       0.140563   -4.169494    1.925900
H      -0.028508   -3.786930   -2.100771
