21

C      -0.014381    1.520138    0.343318
C       0.001639    0.028518    0.063768
C       1.282640   -0.593887   -0.441663
C       0.825030   -0.846304    0.975021
C      -1.302173   -0.577345   -0.449293
O      -2.355016   -0.467850    0.496524
C      -1.713483   -0.002383   -1.826276
C      -2.873818   -0.665913   -2.405134
C      -3.824109   -1.224433   -2.883694
H       0.939650    1.843821    0.769603
H      -0.182160    2.112413   -0.563337
H      -0.795150    1.778479    1.068480
H       1.213757   -1.412299   -1.151599
H       2.138224    0.054345   -0.599439
H       1.371080   -0.368860    1.781678
H       0.439890   -1.829592    1.222695
H      -1.151852   -1.655988   -0.570538
H      -2.657592    0.446155    0.509948
H      -1.920003    1.071798   -1.721669
H      -0.858814   -0.080078   -2.509648
H      -4.666763   -1.715340   -3.303085
