17

C      -0.134307    1.465911    0.065793
C       0.039007   -0.046422    0.000069
C       0.878518   -0.531690   -1.186263
C       2.164776   -0.456195   -0.380923
C       1.211309   -0.597295    0.862757
O       1.126404   -2.037345    0.679879
C       1.584883   -1.812804   -0.660718
C       2.025938   -2.885265   -1.475723
C       2.401373   -3.789647   -2.174400
H       0.821377    1.982897   -0.074071
H      -0.820227    1.818324   -0.711099
H      -0.546309    1.768225    1.034730
H      -0.911220   -0.563771    0.172284
H       0.736733   -0.361586   -2.245910
H       3.142987   -0.035398   -0.564341
H       1.387463   -0.296783    1.893542
H       2.732361   -4.591229   -2.787079
