16

O       0.294719    1.510507   -0.041882
C       0.080904    0.123597   -0.029346
C       0.593059   -0.517719   -1.262876
N       0.992583   -1.018996   -2.224017
C       0.721311   -0.532047    1.222497
O       2.071045   -0.071015    1.300913
C       2.353835    0.400471    2.624057
C       1.023050    0.412341    3.319656
C       0.097456   -0.111267    2.526291
H       1.237157    1.624586    0.146191
H      -1.002356   -0.038544    0.002044
H       0.697737   -1.625705    1.091045
H       3.073553   -0.272486    3.115206
H       2.821707    1.392061    2.560819
H       0.885441    0.782311    4.327224
H      -0.951080   -0.258422    2.749767
