21

C      -0.380411    1.328554    0.529890
C      -0.019397   -0.128417    0.351178
C       1.229511   -0.537850   -0.413999
C       1.143529   -0.791289    1.056181
C       2.000920   -0.115405    2.126758
C       1.754331   -0.981439    3.353203
C       0.306592   -1.298352    3.693599
C       1.110467   -2.231005    2.825099
O       0.964993   -2.148619    1.430257
H       0.510500    1.955646    0.638293
H      -0.934455    1.701342   -0.338810
H      -1.006889    1.486550    1.415624
H      -0.865465   -0.796907    0.214548
H       1.172751   -1.401882   -1.066683
H       1.897594    0.247555   -0.755340
H       3.063178   -0.153174    1.858458
H       1.729842    0.934317    2.269012
H       2.501316   -1.003787    4.137590
H       0.099063   -1.622475    4.707916
H      -0.483254   -0.711224    3.237423
H       1.356573   -3.234828    3.149094
