17

O      -0.805783    0.732322    0.401903
C      -0.070915    1.676396    0.274939
C       1.328565    1.600677   -0.313669
C       1.515280    2.625304   -1.413856
O       1.576792    4.003294   -1.019804
C       2.731232    3.427359   -1.629336
C       3.992125    3.316081   -0.787002
C       4.768206    4.551747   -0.795562
C       5.397923    5.574172   -0.824450
H      -0.375065    2.697376    0.593409
H       2.034721    1.790532    0.502967
H       1.493966    0.586799   -0.690432
H       0.886442    2.451437   -2.289378
H       2.915788    3.781325   -2.644482
H       3.729736    3.053884    0.242667
H       4.605454    2.493784   -1.179964
H       5.955187    6.477975   -0.838006
