15

C      -0.027176    1.343616   -0.019633
O      -0.003179   -0.081720    0.070689
C       0.637948   -0.618618    1.112677
N       1.215299    0.182051    2.004103
C       1.835383   -0.442946    3.016334
C       1.887429   -1.815218    3.150080
C       1.236916   -2.535739    2.139198
O       1.234043   -3.875546    2.184161
N       0.614561   -1.955952    1.125027
H       0.985014    1.750108   -0.091929
H      -0.591406    1.564035   -0.926627
H      -0.518346    1.784622    0.851712
H       2.311512    0.201042    3.751965
H       2.389084   -2.311642    3.968573
H       0.739136   -4.170986    1.405694
