20

C      -0.105128    1.742364   -0.311888
C      -0.308380    0.224496   -0.257262
C       0.742586   -0.556262   -1.049171
C       2.201444   -0.369098   -0.560434
N       2.844731   -1.598575   -0.998555
C       1.986520   -2.636736   -1.210790
O       2.276383   -3.800818   -1.399124
C       0.558640   -2.081221   -1.060377
O       0.054078   -2.533719    0.190983
H       0.851859    2.040496    0.130123
H      -0.122097    2.111069   -1.343894
H      -0.894562    2.262120    0.239125
H      -0.300449   -0.122127    0.780738
H      -1.300223   -0.025409   -0.652295
H       0.712027   -0.233324   -2.097824
H       2.680220    0.507900   -1.005393
H       2.241452   -0.261479    0.532754
H       3.828079   -1.780673   -0.866181
H      -0.080569   -2.421874   -1.885041
H       0.203286   -3.486821    0.218091
