17

C      -0.039297    1.397181   -0.169293
N      -0.025885   -0.053481   -0.260337
C      -1.059383   -0.698027    0.094112
O      -2.178774   -0.016900    0.559657
N      -3.352761   -0.646253    0.970572
C      -3.361564   -1.930744    0.898627
C      -2.272028   -2.747639    0.435329
C      -1.128521   -2.156328    0.034646
C       0.074514   -2.889004   -0.466055
H       0.924422    1.783704   -0.508274
H      -0.831458    1.838736   -0.788630
H      -0.213480    1.741644    0.858816
H      -4.294202   -2.379473    1.227895
H      -2.389845   -3.825461    0.416656
H      -0.094160   -3.968267   -0.470644
H       0.329778   -2.553891   -1.476128
H       0.945427   -2.657764    0.155210
