17

C       0.147010    1.560580   -0.135422
C      -0.066887    0.052858    0.084241
C       0.569961   -0.460509    1.330129
C       0.072945   -1.016889    2.469151
C       1.197691   -1.297821    3.319668
N       1.137077   -1.948856    4.561326
C       2.296061   -0.884862    2.627346
O       1.923169   -0.377207    1.407459
H       1.213644    1.795569   -0.184814
H      -0.319028    1.886504   -1.070315
H      -0.287462    2.140208    0.684828
H      -1.136834   -0.173106    0.135005
H       0.328618   -0.496395   -0.780272
H      -0.966044   -1.217417    2.683209
H       0.336275   -1.661480    5.109494
H       1.975968   -1.820604    5.112494
H       3.352455   -0.890735    2.835659
