15

C      -0.027117    1.463691   -0.031289
C      -0.007424   -0.036302    0.019506
N      -0.056936   -0.660483   -1.103027
O      -0.034569   -2.032104   -1.078969
C       0.041308   -2.768734    0.132328
N       0.060978   -4.031373    0.061766
N       0.084549   -2.079265    1.316702
C       0.068219   -0.786732    1.281560
N       0.151409   -0.089574    2.441463
H       0.870269    1.887695    0.433777
H      -0.068702    1.788871   -1.071689
H      -0.901429    1.870038    0.492006
H       0.017872   -4.329400   -0.912297
H       0.107264   -0.618140    3.298532
H      -0.045544    0.893904    2.475844
