16

C      -0.286369    1.502670    0.012323
C       0.057931    0.006060   -0.047796
C       0.725674   -0.486156    1.199224
C       0.272542   -1.417305    2.110911
N       1.240105   -1.506133    3.074547
C       2.235493   -0.636259    2.719587
N       1.949021   -0.009290    1.593459
C       3.406060   -0.477115    3.505250
N       4.345663   -0.376644    4.174421
H       0.614475    2.093005    0.198840
H      -0.730049    1.836826   -0.930195
H      -0.998273    1.710328    0.817488
H      -0.848146   -0.583812   -0.224760
H       0.723823   -0.176022   -0.899687
H      -0.628229   -2.007171    2.153342
H       1.232077   -2.098548    3.888965
