15

N      -0.033287    1.457827   -0.050184
C      -0.018640    0.020290   -0.011556
C      -1.333068   -0.711037   -0.021333
N      -2.515672    0.077336   -0.215602
C      -0.426022   -0.752340   -1.276218
O      -0.876255    0.023999   -2.335109
C       0.250198   -1.968312   -1.631175
N       0.811069   -2.953568   -1.865996
H       0.897288    1.815083    0.134664
H      -0.278412    1.751453   -0.994756
H       0.763030   -0.415220    0.600654
H      -1.412013   -1.622726    0.562645
H      -3.357628   -0.426264    0.027817
H      -2.463565    0.940417    0.318220
H      -1.810333    0.214206   -2.111082
