19

O      -0.204587    1.489686    0.012261
C       0.016970    0.087268    0.002184
C      -1.350510   -0.580191    0.012073
C      -1.280253   -2.096987    0.002946
O      -0.223786   -2.690653   -0.010431
C      -2.612622   -2.834167    0.011570
C      -2.447739   -4.362273    0.002387
C      -3.728419   -5.057388    0.010529
C      -4.797182   -5.607460    0.017474
H       0.651757    1.926835    0.006262
H       0.576396   -0.231721   -0.888590
H       0.594003   -0.241643    0.877987
H      -1.920008   -0.253293    0.892024
H      -1.937425   -0.243539   -0.852618
H      -3.186466   -2.513123    0.890050
H      -3.202408   -2.504436   -0.853035
H      -1.862875   -4.656610   -0.876032
H      -1.847067   -4.665405    0.867047
H      -5.732716   -6.109279    0.023347
