13

O       0.122200   -0.038620   -0.248729
C       0.132871    1.137886   -0.000767
C       1.330159    2.046683   -0.188603
C       1.018662    3.198432   -1.149010
O       2.055860    4.180357   -1.097336
C       2.911174    4.256539   -2.138797
O       3.824881    5.021780   -2.165363
H      -0.774591    1.649205    0.397492
H       1.584613    2.482694    0.786591
H       2.178938    1.454733   -0.540212
H       0.896539    2.828772   -2.174727
H       0.093998    3.708580   -0.861674
H       2.662225    3.544143   -2.950175
