18

O       0.002377    1.438079    0.059244
C       0.035751    0.021264   -0.007969
C      -1.405861   -0.486711    0.030868
C      -1.444616   -2.016345   -0.136353
C      -2.802594   -2.647005    0.150945
O      -3.218336   -3.642315   -0.405084
N      -3.507368   -2.025735    1.159214
C      -3.105874   -0.836293    1.781010
C      -2.116409   -0.084478    1.299018
H       0.906898    1.761727    0.096395
H       0.520655   -0.323155   -0.935294
H       0.595032   -0.406651    0.839936
H      -1.921830   -0.019982   -0.823180
H      -1.141922   -2.332639   -1.136559
H      -0.741895   -2.474495    0.575611
H      -4.370689   -2.473134    1.426882
H      -3.669748   -0.578871    2.669976
H      -1.834238    0.838093    1.788233
