20

C      -0.115944    1.530022   -0.010656
C       0.046964    0.011282    0.012764
O      -1.243186   -0.603114   -0.008731
C       0.999820   -0.561764   -1.100860
C       1.998859   -1.326987   -0.210448
C       1.061036   -2.012339    0.825356
C       0.789683   -0.538538    1.249596
C       2.285310   -0.279592    0.903036
H       0.841507    2.050000    0.078620
H      -0.574193    1.853082   -0.954141
H      -0.765814    1.851683    0.809023
H      -1.715420   -0.269515   -0.778604
H       0.445384   -1.217478   -1.778638
H       1.482925    0.223138   -1.692159
H       2.801290   -1.869897   -0.711590
H       0.215579   -2.596943    0.460422
H       1.616065   -2.566016    1.586250
H       0.359758   -0.279914    2.217870
H       2.955100   -0.659717    1.677804
H       2.597540    0.725714    0.605346
