16

C      -0.141217   -1.288339   -0.377080
C      -0.090607   -0.104624   -0.182730
C       0.012116    1.327029    0.078612
C      -0.512318    1.750087    1.498351
C       0.539836    2.778641    1.989194
O       1.421806    3.017000    0.897584
C       1.494472    1.825422    0.161675
C      -0.696824    2.084791   -0.966296
N      -1.252013    2.690067   -1.778693
H      -0.196778   -2.333381   -0.560124
H      -1.515883    2.170215    1.431283
H      -0.552200    0.871256    2.142887
H       0.104757    3.738198    2.275867
H       1.095802    2.376575    2.848154
H       2.086025    1.049983    0.672411
H       1.931273    2.036051   -0.815211
