12

O      -0.166717    1.220214   -0.321716
C       0.085237   -0.046164    0.018768
N       1.269445   -0.523712   -0.106084
C       1.507674   -1.859232    0.215218
O       2.338022   -2.235251    0.994955
N       0.766791   -2.792610   -0.565744
C      -0.502181   -2.824716   -0.427315
C      -1.299923   -1.882562    0.379227
N      -1.053312   -0.637255    0.564253
H       0.662476    1.588085   -0.660027
H      -1.061374   -3.602381   -0.954276
H      -2.225748   -2.266176    0.813763
