18

N      -0.161754   -1.126899    0.266243
C      -0.101041    0.013704    0.091407
C      -0.001061    1.459932   -0.134782
C       1.421925    1.958191   -0.081676
C       2.101764    2.396855    1.185017
C       1.920093    3.385306    0.058415
C       2.882964    3.170805   -1.142997
C       3.843527    2.027199   -0.966393
C       2.400733    1.734838   -1.274682
H      -0.452480    1.684320   -1.109896
H      -0.609971    1.971669    0.619169
H       1.423757    2.556840    2.019040
H       3.070385    2.021128    1.493055
H       1.335789    4.288168    0.185310
H       3.004852    3.910569   -1.923218
H       4.507223    1.876720   -1.812922
H       4.306152    1.784689   -0.016659
H       2.098718    1.202002   -2.167525
