16

O      -0.027379    1.389614    0.151776
C      -0.014311    0.015904    0.041072
C      -0.224668   -0.742926   -1.241159
C      -1.206162   -0.903652   -0.096572
C      -0.642968   -1.810673    1.028931
N       0.743997   -2.243308    0.704392
C       0.548948   -0.889141    1.181682
C      -1.338241   -2.415711    2.163052
O      -0.782592   -3.107692    2.992490
H       0.766523    1.736636   -0.271715
H      -0.608060   -0.114805   -2.039484
H       0.423419   -1.556042   -1.542576
H      -2.254722   -0.649330   -0.177458
H       1.032603   -2.821199    1.497878
H       0.960779   -0.523669    2.114866
H      -2.422497   -2.186406    2.231686
