18

C       0.271082    1.482104    0.299835
C      -0.003941    0.000450    0.142443
O      -1.399087   -0.131930    0.060946
C       0.653520   -0.827923   -1.075837
C       0.814308   -2.027257   -0.230316
N       1.980619   -1.557421   -0.953298
C       2.950881   -1.175687    0.110913
C       2.058340   -0.684961    1.243957
C       0.788304   -1.052421    0.973176
H       1.327151    1.713459    0.153720
H      -0.317962    2.029423   -0.441514
H      -0.034845    1.828734    1.291398
H      -1.615007   -1.071096    0.065768
H       0.267127   -0.756044   -2.088355
H       0.427750   -3.035936   -0.317140
H       3.575886   -2.056675    0.302471
H       3.612135   -0.361994   -0.210105
H       2.313682    0.217131    1.790825
