14

O       0.060245    0.007928    0.041085
C       0.078903    1.192924    0.155147
O       1.157497    1.930543   -0.230173
C       1.046725    3.322149   -0.117776
C       1.341627    3.974651    1.230384
C       2.348633    4.048673    0.128281
C       0.030984    3.965585   -0.992237
O      -0.768627    3.361652   -1.659026
H      -0.728164    1.804463    0.591772
H       0.783866    4.865227    1.498678
H       1.527310    3.284084    2.044557
H       3.219265    3.406912    0.187084
H       2.502959    4.992980   -0.381812
H       0.063664    5.078156   -0.968956
