19

C       0.008418    1.445332   -0.082530
C       1.353286    0.749382    0.010514
O       2.113931    0.470411   -1.122599
C       2.288647   -0.944993   -1.260365
C       0.954552   -1.712680   -0.978301
C       0.752942   -2.213905    0.490359
C      -0.100274   -1.076948    1.146362
C       0.067796   -0.038983    0.062507
O      -0.091012   -0.753602   -1.147682
H      -0.282215    2.053866    0.766996
H      -0.315798    1.810282   -1.050429
H       1.924311    0.889628    0.929618
H       2.606424   -1.099597   -2.295005
H       3.092663   -1.300327   -0.597293
H       0.820234   -2.510599   -1.711540
H       0.227733   -3.171654    0.505426
H       1.708860   -2.352435    1.002974
H      -1.143445   -1.381320    1.271018
H       0.288138   -0.755507    2.115371
