16

O      -0.801567    1.050079   -0.693372
C       0.125269    0.875401    0.056778
C       1.338631    1.766945    0.134947
C       1.407958    3.026277   -0.753681
N       1.533792    3.950048    0.436242
C       0.319147    3.774278    1.219238
C       1.358690    2.716463    1.349643
C       2.170768    2.554624    2.579369
O       2.248451    3.387433    3.447568
H       0.121513    0.036149    0.789848
H       2.246408    1.155110    0.097587
H       2.304155    3.089364   -1.370589
H       0.519590    3.214693   -1.361230
H       0.253977    4.457205    2.059671
H      -0.615518    3.536062    0.715768
H       2.720344    1.588279    2.648334
