20

C       0.039109    1.548947    0.020351
C       0.072503    0.036181   -0.012946
C      -0.852045   -0.731170    0.933853
C       0.624466   -0.748727    1.177594
C       1.429947   -2.033257    0.927370
N       1.830826   -2.274051   -0.459064
C       0.733939   -2.028799   -1.399459
C       0.271121   -0.569857   -1.367044
O       0.148623    0.082911   -2.383289
H       0.984734    1.972004   -0.333203
H      -0.751620    1.930726   -0.630795
H      -0.139955    1.910692    1.037348
H      -1.485792   -0.127550    1.574754
H      -1.322546   -1.640701    0.574515
H       0.976110   -0.131239    1.999642
H       2.337310   -2.018088    1.538144
H       0.842255   -2.899139    1.260710
H       2.604140   -1.659476   -0.696880
H       1.049731   -2.254350   -2.421022
H      -0.093291   -2.707082   -1.150374
