25

C      -0.112789    1.561693    0.058547
C       0.001048    0.036357   -0.009517
C       0.772968   -0.489295   -1.245571
C       2.251244   -0.048761   -1.256984
C       0.670280   -1.947525   -1.330231
C       0.590289   -3.149709   -1.376453
C       0.513860   -4.610530   -1.440849
C       1.157648   -5.144888   -2.735680
C       1.149768   -5.255849   -0.193418
H       0.862850    2.044147    0.170274
H      -0.582719    1.965262   -0.845746
H      -0.726475    1.864503    0.912619
H       0.489286   -0.346128    0.895367
H      -1.002327   -0.402889   -0.024219
H       0.290562   -0.062863   -2.138008
H       2.768180   -0.418036   -0.365340
H       2.765721   -0.449512   -2.134222
H       2.338130    1.041047   -1.280249
H      -0.548456   -4.893181   -1.456421
H       0.685068   -4.707256   -3.618933
H       2.223629   -4.898299   -2.765344
H       1.055341   -6.233635   -2.791061
H       0.672495   -4.895792    0.721802
H       1.046406   -6.345216   -0.232883
H       2.215756   -5.014039   -0.136518
