14

O       0.149948    1.413609   -0.219268
C       0.025207    0.019230   -0.038294
C       0.644108   -0.542453    1.252180
C      -0.229156   -1.300924    1.939069
C      -1.510102   -1.311518    1.214406
C      -1.374322   -0.536639    0.105063
O      -2.489047   -0.488821   -0.611382
N      -3.451275   -1.279613    0.054855
C      -2.850861   -1.758221    1.127425
H      -0.240263    1.845192    0.549478
H       0.518043   -0.432815   -0.909150
H       1.669152   -0.325268    1.521739
H      -0.031174   -1.818998    2.868230
H      -3.421091   -2.402301    1.781947
