16

C      -0.087376    1.083193    0.529041
C      -0.005458    0.118702   -0.656567
N      -1.234753   -0.635942   -0.873243
C      -1.559831   -1.777291   -0.246132
N      -2.759866   -2.324142   -0.517078
C      -2.962678   -3.452003    0.134793
N      -2.115274   -4.049225    0.986651
N      -0.958985   -3.440564    1.206119
N      -0.655925   -2.312249    0.616270
H       0.850875    1.637763    0.627736
H      -0.898971    1.805839    0.397770
H      -0.258816    0.531774    1.457109
H       0.205105    0.662624   -1.582445
H       0.802427   -0.599076   -0.501116
H      -1.960771   -0.250010   -1.457198
H      -3.909888   -3.962623   -0.023617
