11

C      -0.016094    1.453851    0.013027
N       0.001586    0.007144   -0.067151
C       0.087255   -0.793265   -1.155609
C       0.060311   -2.066969   -0.640938
N      -0.037654   -1.985997    0.713962
N      -0.073648   -0.731283    1.060553
H       0.905709    1.875296   -0.397314
H      -0.872789    1.860797   -0.531159
H      -0.097569    1.715417    1.067845
H       0.156461   -0.403857   -2.157417
H       0.104997   -3.014505   -1.152726
