16

C      -0.042910    1.469111    0.000071
C       0.004559    0.017448    0.078879
C       0.037000   -1.185444    0.139683
C       0.088112   -2.619283    0.187131
C      -0.468357   -3.425064    1.295488
C      -1.677298   -2.756124    1.942473
C      -2.261609   -2.752317    0.518738
O      -3.286519   -2.426566    0.014033
N      -1.137432   -3.474446   -0.078625
H       0.596665    1.840944   -0.807501
H      -1.063217    1.815742   -0.195796
H       0.294316    1.930918    0.934354
H       0.941356   -3.060514   -0.322055
H       0.041990   -4.301381    1.676684
H      -2.245887   -3.414673    2.603685
H      -1.526686   -1.787282    2.422035
