18

C      -0.108105    1.583610    0.072534
C      -0.148178    0.128418    0.061006
C      -0.184058   -1.074465    0.054649
C      -0.217931   -2.535650    0.041180
N      -1.586879   -3.041733   -0.133411
C      -1.842629   -3.715782   -1.154768
C      -3.077689   -4.398392   -1.703518
C      -2.136139   -4.803158   -2.856068
O      -1.029526   -4.102428   -2.211452
H      -1.119072    2.006196    0.080358
H       0.413563    1.962101    0.958715
H       0.408183    1.978465   -0.809667
H       0.468794   -2.912087   -0.729142
H       0.147762   -2.912108    1.005483
H      -3.462043   -5.213444   -1.088351
H      -3.893654   -3.722712   -1.964433
H      -1.918643   -5.869515   -2.953394
H      -2.353978   -4.370152   -3.835241
