19

C      -0.107897    1.590011   -0.104961
C      -0.000393    0.064430    0.012569
C       0.737130   -0.561281   -1.193342
N       2.153129   -0.218059   -1.143634
C       2.833324    0.027341    0.025005
O       3.902760    0.598232    0.070759
N       2.196984   -0.512985    1.164079
C       1.597550    0.386085    2.140384
C       0.735073   -0.451534    1.248994
H       0.871286    2.068119   -0.202206
H      -0.693044    1.859762   -0.990333
H      -0.605889    2.016555    0.770131
H      -1.014440   -0.349082    0.034281
H       0.598343   -1.651086   -1.179874
H       0.323772   -0.194225   -2.137897
H       2.600992    0.159149   -1.962797
H       1.727514    0.100596    3.180523
H       1.671001    1.452338    1.948929
H       0.303038   -1.350391    1.685394
