16

N      -0.124497    1.522461    0.118265
C      -0.027119    0.082147    0.022130
C       0.875176   -0.459551    1.144233
C       2.227089    0.096245    1.096950
N       3.283704    0.563094    1.073111
C      -1.400140   -0.661066   -0.074413
N      -0.928805   -1.243195   -1.332747
C       0.265906   -0.565126   -1.381848
O       1.141884   -0.492995   -2.198823
H       0.802824    1.935372    0.047789
H      -0.663025    1.894435   -0.658848
H       0.431739   -0.196566    2.111059
H       0.935855   -1.550980    1.084981
H      -1.608729   -1.390577    0.714790
H      -2.250197    0.020858   -0.176461
H      -1.399955   -1.811328   -2.020996
