17

O      -0.117825   -0.057362    0.053820
C      -0.103631    1.137837    0.030655
C      -1.184211    2.231960    0.149273
C      -0.057598    3.179423    0.689500
C       0.031160    3.181278    2.185829
C       0.950576    2.476369    2.844134
C       2.020165    1.666283    2.166954
O       2.203285    1.995471    0.794279
C       1.017948    2.209209    0.098263
H      -1.563819    2.535760   -0.831509
H      -2.025115    2.010696    0.808650
H      -0.068563    4.189367    0.273321
H      -0.716482    3.752197    2.731365
H       0.957219    2.453434    3.930774
H       2.990453    1.844069    2.643736
H       1.802330    0.590897    2.271791
H       1.294992    2.502573   -0.920753
