21

C      -0.088895    1.367981    0.046705
O      -0.063069   -0.041453   -0.111799
C       0.707714   -0.543888   -1.168446
C       2.185884   -0.138040   -1.057152
C       0.520315   -2.067584   -1.126388
C       0.837803   -2.699903   -2.454407
C       0.920218   -1.985306   -3.573302
C       0.679090   -0.503508   -3.579497
O       0.126475   -0.024053   -2.368117
H       0.866383    1.760848    0.420466
H      -0.343712    1.872706   -0.890320
H      -0.862228    1.576002    0.789650
H       2.547945   -0.345655   -0.046607
H       2.797915   -0.705649   -1.762366
H       2.316351    0.925868   -1.269298
H       1.149065   -2.493446   -0.335807
H      -0.518475   -2.265306   -0.836847
H       1.003195   -3.773692   -2.471989
H       1.172649   -2.444405   -4.525177
H       1.614217    0.030161   -3.828818
H      -0.044016   -0.236877   -4.360240
