17

C      -0.062629    1.573243    0.127310
C      -0.034842    0.045944    0.026792
O       0.690084   -0.422608    1.161521
C      -1.393789   -0.509743    0.020301
C      -2.484741   -1.013601    0.044873
C       0.701199   -0.433305   -1.278768
O       0.015297   -0.022267   -2.451551
C       2.102603   -0.014682   -1.290469
C       3.240060    0.368459   -1.357046
H       0.960951    1.954106    0.160824
H      -0.587678    2.002288   -0.729065
H      -0.582313    1.870181    1.039948
H       0.507865   -1.363295    1.263874
H      -3.455584   -1.444443    0.059951
H       0.652794   -1.529370   -1.276726
H       0.342963    0.850841   -2.691660
H       4.251430    0.690126   -1.402729
