13

O      -0.140847    1.315856   -0.041862
N       0.022307   -0.080140    0.039004
C      -1.093537   -0.670580   -0.041626
C      -2.570452   -0.261809   -0.062781
C      -2.887109   -1.761044    0.112150
N      -2.325576   -2.436863   -1.070357
C      -1.429101   -2.117376    0.091936
H       0.766157    1.629489    0.039986
H      -2.822593    0.356471    0.803134
H      -2.948323    0.201915   -0.976289
H      -3.686192   -2.200504    0.694230
H      -2.546501   -3.430098   -0.984733
H      -0.874966   -2.895993    0.598315
