17

C       0.003351    1.531584    0.021650
C       0.004870    0.022909   -0.004819
C      -0.080612   -0.689832   -1.200509
C      -0.089683   -2.082906   -1.223142
C      -0.011379   -2.822336   -0.041074
N      -0.075715   -4.215583   -0.001172
C       0.080185   -2.091062    1.149156
F       0.175570   -2.791677    2.298271
C       0.088759   -0.712361    1.184492
H       0.871475    1.927378    0.560867
H       0.024331    1.943213   -0.990998
H      -0.889847    1.926365    0.520505
H      -0.142048   -0.148521   -2.139566
H      -0.161281   -2.610114   -2.169811
H       0.290980   -4.674570   -0.822231
H       0.298046   -4.611793    0.849218
H       0.166096   -0.220358    2.148534
