18

C      -0.366680    1.697381    0.265853
C      -0.456940    0.209567    0.613863
C      -0.905418   -0.648426   -0.573649
C      -1.006824   -2.108847   -0.275931
C      -0.763369   -2.784120    0.869891
O      -1.004959   -4.131549    0.629917
C      -1.380996   -4.154703   -0.665430
O      -1.683849   -5.341616   -1.189147
N      -1.408718   -3.017602   -1.267226
H      -0.044758    2.288706    1.128399
H       0.349866    1.871584   -0.544344
H      -1.336720    2.086650   -0.062314
H       0.519340   -0.144846    0.968388
H      -1.157085    0.068729    1.447141
H      -1.880150   -0.299718   -0.940919
H      -0.214198   -0.512135   -1.416420
H      -0.444590   -2.529512    1.863956
H      -1.572900   -6.013214   -0.505451
