21

C       0.283286    1.784452    0.033271
C       0.248145    0.253881    0.115454
C       0.785138   -0.412939   -1.144116
C       0.804453   -1.961598   -1.274933
C       0.081250   -2.807187   -0.242368
O       0.073813   -1.899243   -2.528037
C      -0.094177   -0.464818   -2.436956
C      -1.490203   -0.062887   -2.330917
C      -2.642335    0.273224   -2.250707
H       1.304017    2.149674   -0.126907
H      -0.337921    2.147421   -0.791250
H      -0.091930    2.236416    0.956378
H       0.850133   -0.080536    0.970094
H      -0.777941   -0.075965    0.307543
H       1.766299    0.008212   -1.382833
H       1.809759   -2.368520   -1.445957
H      -0.929584   -2.435433   -0.056785
H       0.002247   -3.836762   -0.605198
H       0.632332   -2.822779    0.704212
H       0.358242    0.034377   -3.303140
H      -3.661523    0.565596   -2.187643
