19

N      -0.118215    1.325299    0.010292
C      -0.049277    0.065649    0.002726
O      -1.178014   -0.670106    0.009187
C      -1.009408   -2.087362   -0.000183
C      -2.395127   -2.715906    0.009907
C      -2.336102   -4.245513    0.000935
C      -3.745249   -4.870323    0.011228
C      -3.709540   -6.331192    0.002849
N      -3.659570   -7.485567   -0.003779
H       0.817980    1.724657    0.004031
H       0.869613   -0.537735   -0.008836
H      -0.451483   -2.394937   -0.895926
H      -0.434150   -2.404643    0.881093
H      -2.933352   -2.360492    0.896489
H      -2.950534   -2.350836   -0.862034
H      -1.796538   -4.600145   -0.884608
H      -1.779430   -4.609794    0.871852
H      -4.300107   -4.540718    0.897413
H      -4.317227   -4.531078   -0.860312
