20

C       0.069397    1.385208   -0.376202
C      -0.055138    0.027496    0.324477
C      -1.447662   -0.555899    0.195511
C      -1.862497   -1.327289   -1.031709
C      -1.662431   -2.052533    0.293192
O      -0.526604   -2.833821    0.466371
C      -0.612153   -4.124531   -0.125674
C      -2.839285   -2.531507    0.992563
N      -3.772512   -2.928910    1.549067
H       1.079936    1.789447   -0.265327
H      -0.143755    1.299396   -1.446855
H      -0.630016    2.116408    0.043329
H       0.671262   -0.679929   -0.085136
H       0.188783    0.135211    1.388163
H      -2.232422    0.035766    0.659348
H      -2.868375   -1.220070   -1.420176
H      -1.096736   -1.524892   -1.774917
H      -0.777341   -4.056881   -1.209242
H       0.342922   -4.616304    0.066413
H      -1.420858   -4.716257    0.321612
