21

C       0.048338    1.514737    0.055477
C       0.080554   -0.011538   -0.004062
O      -1.259623   -0.526722   -0.041054
C       0.889303   -0.587178   -1.182612
C       1.173352   -2.036282   -0.744799
O       2.157012   -2.713964   -1.485503
C       1.556117   -1.874033    0.749291
O       2.972662   -1.669139    0.857822
C       0.726140   -0.672302    1.246278
H       1.057127    1.934256    0.128092
H      -0.419421    1.930087   -0.845207
H      -0.530893    1.848257    0.921828
H      -1.671002   -0.214046   -0.854370
H       0.355181   -0.518692   -2.135204
H       1.837452   -0.046025   -1.304565
H       0.242528   -2.608952   -0.813335
H       2.984401   -2.556760   -1.007627
H       1.370977   -2.787801    1.317672
H       3.165793   -0.752992    0.631335
H       1.372360    0.027496    1.786086
H      -0.067184   -0.973435    1.933439
