19

C       0.197952    1.536700   -0.090546
C       0.053467    0.022194   -0.019794
C      -1.391557   -0.419074    0.264102
C       0.678301   -0.830616   -1.170988
O       1.873745   -0.256761   -1.735860
C       2.726217   -1.075898   -0.905515
C       1.512602   -1.673289   -0.155993
C       1.002076   -0.732719    0.947933
O       1.234334   -0.628643    2.117692
H       1.193401    1.814946   -0.443340
H      -0.539120    1.967576   -0.776984
H       0.039609    1.977085    0.898815
H      -2.062241   -0.033692   -0.511114
H      -1.491909   -1.510151    0.285531
H      -1.722484   -0.035200    1.233339
H       0.004594   -1.236829   -1.929010
H       3.274347   -1.812285   -1.504901
H       3.437007   -0.488502   -0.313933
H       1.469299   -2.749886   -0.000774
