20

C       0.053645    1.361821   -0.259540
C       0.080867   -0.119584    0.143527
C       0.706370   -0.319430    1.530715
C      -1.322594   -0.698851    0.099963
C      -1.988018   -1.246192   -1.111737
O      -1.017984   -1.894804   -1.978476
C      -0.767822   -2.845028   -0.983490
N      -0.069893   -3.884611   -1.018845
C      -1.661458   -2.198121    0.022584
H       1.063470    1.784102   -0.258206
H      -0.366370    1.492798   -1.261655
H      -0.552463    1.950636    0.439659
H       0.690206   -0.658044   -0.590174
H       0.750765   -1.380270    1.794493
H       1.725061    0.080029    1.559707
H       0.125376    0.197399    2.304185
H      -2.029728   -0.191201    0.757647
H      -2.926663   -0.954137   -1.562851
H       0.372841   -4.001151   -1.931937
H      -2.288295   -2.705752    0.740609
