23

C       0.555379    1.612989   -0.157472
C       0.087092    0.173241    0.076042
C       0.575572   -0.772444   -1.028848
O       1.915717   -1.088373   -0.668247
C       1.999733   -1.181940    0.753884
C       3.336608   -0.592383    1.187480
C       0.687278   -0.532386    1.319146
C       0.867399    0.337961    2.560420
O      -0.261839   -1.570980    1.610909
H       1.637701    1.664204   -0.310484
H       0.078582    2.017847   -1.056145
H       0.294407    2.270844    0.676150
H      -1.002255    0.148059    0.169505
H      -0.045726   -1.678073   -1.066431
H       0.599132   -0.315520   -2.022600
H       1.974441   -2.245681    1.044555
H       3.399320    0.475423    0.961105
H       3.504379   -0.733190    2.259654
H       4.142827   -1.097476    0.648202
H       1.558750    1.167535    2.397399
H      -0.100081    0.743954    2.869255
H       1.258790   -0.258875    3.392964
H       0.117199   -2.135225    2.293391
