12

N      -0.044109    1.304169   -0.122993
C      -0.017344   -0.040113   -0.010601
N       1.176579   -0.657624    0.077211
H       1.191211   -1.666203    0.057804
H       2.017635   -0.177831   -0.196443
C      -1.222103   -0.767415    0.005981
N      -2.373229   -0.004748    0.046545
O      -3.449062   -0.596585    0.049690
C      -1.193460   -2.185340   -0.008657
N      -1.095977   -3.341801   -0.018088
H       0.729677    1.847182    0.223841
H      -0.973574    1.701872   -0.055183
