18

N      -0.057293   -0.977067    0.608577
C      -0.089202    0.154396    0.360642
C      -0.079910    1.543827    0.054344
C      -1.169804    2.321422   -0.037819
C      -0.835506    3.746486   -0.396310
C       0.701601    3.782669   -0.298040
C       1.313834    4.034876    1.113813
C       2.045250    2.663897    1.046466
C       1.204304    2.301815   -0.211733
H      -2.184107    1.969129    0.111961
H      -1.204179    3.985046   -1.403638
H      -1.313897    4.465150    0.281432
H       1.166995    4.382636   -1.081029
H       1.951711    4.916077    1.209182
H       0.552824    4.078871    1.897997
H       3.107651    2.762179    0.810651
H       1.943023    2.001611    1.909302
H       1.758447    1.875697   -1.052835
