10

C      -0.017996    1.553172    0.008650
C      -0.017823    0.004503    0.037055
C       0.719107   -0.507841    1.201797
N       1.325518   -0.881840    2.109964
C      -1.387485   -0.529899    0.012024
N      -2.472258   -0.921609   -0.034965
H       1.010903    1.917482   -0.009231
H      -0.539576    1.901248   -0.884922
H      -0.520838    1.951123    0.891595
H       0.493008   -0.367418   -0.860518
