19

O      -0.078907    1.367195   -0.112637
C      -0.021316   -0.026225   -0.022549
C      -0.459787   -0.712211    1.256198
C      -1.329989   -0.736861    0.023867
C      -2.687439   -0.020134   -0.121026
C      -3.361983   -1.110712   -0.985410
C      -3.016004   -2.432762   -0.262240
C      -1.634041   -1.990193   -0.794321
O      -2.313215   -1.423334   -1.960239
H       0.653078    1.730584    0.396293
H       0.786782   -0.489509   -0.590882
H       0.053485   -1.619813    1.561161
H      -0.773722   -0.070466    2.073755
H      -3.200693    0.151904    0.829486
H      -2.597709    0.927585   -0.654610
H      -4.335698   -0.904097   -1.429046
H      -3.172097   -2.512423    0.816888
H      -3.399635   -3.303300   -0.794876
H      -0.821761   -2.678040   -1.032246
