18

C      -0.060209    1.460179    0.434353
C      -0.148944   -0.044436    0.194526
O       0.194033   -0.777657    1.365146
C      -1.534007   -0.496119   -0.353421
C      -1.815475    0.016279   -1.770557
C      -1.564704   -2.019926   -0.325267
O      -1.240076   -2.725849   -1.245579
C      -2.044353   -2.620186    0.939076
N      -2.470576   -3.064019    1.918320
H       0.919071    1.701680    0.856033
H      -0.186122    2.031723   -0.488762
H      -0.830739    1.788410    1.143139
H       0.605666   -0.343807   -0.542481
H      -0.363650   -0.480525    2.093662
H      -2.302736   -0.133863    0.342743
H      -1.052008   -0.338863   -2.466791
H      -2.783788   -0.342871   -2.129261
H      -1.833193    1.108038   -1.792539
