18

C      -0.320559    1.375055   -0.026006
N       0.029984   -0.034211    0.025629
C       0.272141   -0.737689   -1.152744
N       0.407685   -1.995454   -1.287226
C       0.244375   -2.791121   -0.067486
C       0.770983   -2.058270    1.163268
O       2.185295   -1.902331    1.103952
C       0.106863   -0.691626    1.261620
N      -0.261625   -0.232158    2.389396
H       0.313288    1.954141    0.653406
H      -0.169096    1.743205   -1.042317
H      -1.369649    1.543151    0.245493
H       0.340078   -0.096694   -2.032009
H      -0.820773   -3.032417    0.061345
H       0.778709   -3.738336   -0.188676
H       0.552576   -2.595831    2.087541
H       2.423538   -1.749611    0.181763
H      -0.659797    0.705220    2.322120
