17

C       0.042251    1.525817    0.053944
C       0.030966    0.021053    0.052936
C       0.019506   -0.712835   -1.130527
N       0.002851   -2.047606   -1.176946
C       0.000490   -2.661091    0.003840
N       0.016393   -2.080811    1.204858
C       0.028951   -0.743495    1.231715
C       0.078839   -0.099432    2.602102
O       1.292762    0.614916    2.818313
H       0.838246    1.907288    0.697598
H       0.181541    1.915221   -0.958047
H      -0.902714    1.929764    0.437410
H       0.023271   -0.196126   -2.089478
H      -0.013099   -3.748393   -0.009309
H      -0.719130    0.643425    2.706476
H      -0.075890   -0.882211    3.353896
H       2.011718   -0.025525    2.789751
