15

C      -0.075685   -1.241994   -0.094672
C      -0.049975   -0.041435   -0.048818
C      -0.018140    1.408912    0.007970
C      -0.993578    1.991937   -0.912620
N      -1.759640    2.469215   -1.635261
C       0.111467    2.155832    1.407535
C       1.558159    1.618111    1.516580
C       1.372143    2.179852    0.086966
N       0.700183    3.369114    0.729365
H      -0.101383   -2.303300   -0.137649
H      -0.667893    2.220954    2.166437
H       2.211011    2.214908    2.150678
H       1.694801    0.544547    1.627497
H       2.092636    2.273548   -0.725245
H       0.020885    3.790259    0.088536
