21

C      -0.012131    1.577909   -0.092959
C       0.019069    0.073447    0.201625
C      -1.355064   -0.573692    0.080807
C      -1.977347   -0.875926   -1.309479
C      -1.064652   -2.145171   -1.456925
C      -1.911517   -3.211641   -2.139533
O      -3.184471   -2.997037   -1.506228
C      -2.900502   -1.928268   -0.626892
C      -1.509608   -2.115788    0.048516
H       0.977453    2.028689    0.030222
H      -0.343285    1.774213   -1.118388
H      -0.701314    2.098613    0.581252
H       0.737391   -0.414394   -0.466458
H       0.394185   -0.088528    1.220905
H      -2.053849   -0.079637    0.769970
H      -2.254435   -0.176078   -2.099679
H      -0.016503   -2.058549   -1.737336
H      -2.001372   -3.068727   -3.223891
H      -1.562513   -4.234065   -1.946868
H      -3.785119   -1.640631   -0.059869
H      -1.245254   -2.838871    0.822313
