18

O      -0.034332    1.405746   -0.039275
C      -0.001769   -0.008193   -0.016972
C       0.664722   -0.614743    1.236483
C      -0.051429   -1.944395    1.451956
O       0.268057   -2.841901    2.195293
C      -1.285445   -1.940937    0.589414
C      -1.599267   -3.217174   -0.130548
N      -2.424504   -2.772038    0.987332
C      -1.445042   -0.544902    0.021564
H       0.866223    1.728399   -0.144542
H       0.501888   -0.397052   -0.915853
H       1.749305   -0.737177    1.183067
H       0.441851    0.029714    2.097879
H      -2.068772   -3.152667   -1.108657
H      -0.924843   -4.055643    0.019976
H      -2.148418   -3.288370    1.823974
H      -2.028594    0.081937    0.705973
H      -1.930687   -0.516957   -0.955566
