18

C      -0.151289    1.513698   -0.092720
C      -0.018654   -0.003540   -0.034742
C       1.140215   -0.583267   -0.890412
O       1.525229    0.231526   -1.970838
C       2.036968   -0.634129    0.373358
C       0.734824   -0.560008    1.234187
C       0.748566    0.218050    2.454048
C       0.764509    0.875802    3.461380
H       0.801517    2.016723    0.092047
H      -0.503527    1.824950   -1.079710
H      -0.864112    1.861188    0.660591
H      -0.993658   -0.466395   -0.210455
H       0.893943   -1.599779   -1.231277
H       2.258292   -0.193618   -2.426672
H       2.688124   -1.498591    0.521492
H       2.621402    0.283656    0.467532
H       0.378370   -1.572276    1.452237
H       0.779715    1.451922    4.352959
