17

C       0.174527    1.467632   -0.019969
C       0.058110   -0.021645   -0.070147
C       0.042563   -0.905638   -1.134275
C       0.146316   -0.560708   -2.599854
C       1.370306    0.168937   -2.949841
N       2.326954    0.761109   -3.215307
C      -0.117202   -2.219002   -0.605251
C      -0.196920   -2.106671    0.760527
N      -0.090617   -0.773763    1.069016
H       0.726622    1.842264   -0.885212
H      -0.805132    1.962947   -0.009141
H       0.715678    1.793702    0.875120
H       0.120512   -1.479955   -3.194443
H      -0.705527    0.043383   -2.938752
H      -0.161596   -3.136404   -1.172850
H      -0.311887   -2.851080    1.531200
H      -0.099362   -0.394135    2.000170
