23

C      -0.117006    1.612303   -0.109741
C      -0.050726    0.150709    0.350550
C      -1.379745   -0.555171    0.176643
C      -1.781979   -1.175964   -1.119127
C      -1.511073   -2.082710    0.069935
C      -0.301120   -2.955199    0.048290
O       0.671928   -2.713558   -0.639469
C      -0.356272   -4.182972    0.949008
C       0.913337   -5.028357    0.913420
H       0.845834    2.112361    0.033130
H      -0.376324    1.679083   -1.171456
H      -0.871325    2.175707    0.451339
H       0.721414   -0.384681   -0.207152
H       0.242687    0.114269    1.407919
H      -2.190928   -0.109700    0.749575
H      -2.806713   -1.090229   -1.462727
H      -1.029085   -1.221106   -1.899401
H      -2.370196   -2.507527    0.579041
H      -0.581120   -3.838972    1.968558
H      -1.235295   -4.772441    0.651248
H       0.817364   -5.900395    1.566475
H       1.120783   -5.375358   -0.101927
H       1.779209   -4.445624    1.238078
