19

C      -0.016510    1.601499    0.065685
C      -0.053189    0.074819   -0.024749
C       0.753105   -0.508155   -1.213103
C       0.800485   -2.047174   -1.185692
C      -0.365538   -2.517810   -2.060618
O      -0.930888   -3.575515   -1.971712
C      -0.687488   -1.405479   -3.054906
C       0.045215   -0.167103   -2.536040
O       0.054101    0.911968   -3.071004
H       1.008226    1.958369    0.215118
H      -0.396379    2.066867   -0.846862
H      -0.619460    1.951081    0.909158
H       0.354460   -0.362608    0.894637
H      -1.093300   -0.274771   -0.086067
H       1.747897   -0.052765   -1.216232
H       1.723375   -2.419321   -1.650223
H       0.739031   -2.488671   -0.188268
H      -0.305696   -1.668579   -4.049238
H      -1.762717   -1.240889   -3.168919
