20

C      -0.124072    1.509671   -0.041707
C       0.083594    0.036823    0.036623
C       0.679485   -0.971021   -0.871816
C       1.357101   -1.750405    0.260331
C       1.003382   -3.241466    0.308227
C      -0.536718   -3.236211    0.558687
C      -0.875015   -1.753842    0.719201
C       0.371428   -0.979420    1.199099
N      -0.809067   -0.988564   -0.583521
H       0.786062    2.054936    0.232449
H      -0.400203    1.794938   -1.061704
H      -0.927339    1.836736    0.628391
H       0.962735   -0.892022   -1.914571
H       2.412209   -1.500232    0.383405
H       1.278214   -3.755280   -0.618035
H       1.535175   -3.743133    1.123965
H      -1.101997   -3.666142   -0.273714
H      -0.801103   -3.800257    1.458935
H      -1.821424   -1.534815    1.216383
H       0.604948   -0.775394    2.242627
