15

O      -0.014296   -0.025351    0.033196
C      -0.031400    1.167676    0.033729
C      -1.133660    2.253475   -0.014631
N      -0.074573    3.313076   -0.031191
C       0.364356    3.851051    1.282733
C       0.431876    2.852887    2.407266
C       1.527758    2.867772    1.373751
C       1.034705    2.291579    0.035795
H      -1.716898    2.239885   -0.941580
H      -1.822951    2.270524    0.835664
H       0.333452    4.920089    1.458132
H       0.715192    3.290076    3.359575
H      -0.255946    2.018115    2.502161
H       2.566711    3.039902    1.620526
H       1.761005    2.285839   -0.781285
