11

O      -0.216989    1.382328   -0.010655
C      -0.042647   -0.010563    0.003595
C      -0.445377   -0.788101    1.239420
C      -1.338759   -0.770062    0.014541
O      -2.519123   -0.035128    0.034935
H       0.311323    1.766662    0.695852
H       0.791507   -0.368046   -0.596983
H       0.107630   -1.688321    1.485853
H      -0.797295   -0.211630    2.089183
H      -1.422352   -1.675643   -0.578665
H      -2.251687    0.893763   -0.011409
