17

C       0.121684   -1.092910    0.276604
C       0.016847    0.101198    0.153529
C      -0.047659    1.504394   -0.012255
C      -1.144377    2.278467    0.047477
C      -0.865410    3.739584   -0.200020
C       0.669342    3.800336   -0.301783
C       1.472348    3.928295    1.012553
O       1.998121    2.588180    0.890547
C       1.190782    2.341554   -0.284494
H       0.203878   -2.144804    0.394787
H      -2.142259    1.901250    0.242097
H      -1.354321    4.083998   -1.121090
H      -1.257482    4.375239    0.605177
H       1.029425    4.436404   -1.109890
H       2.274523    4.675031    1.016713
H       0.862282    4.053572    1.917185
H       1.801567    1.955991   -1.107298
