14

O      -0.069778    0.052280    0.029274
C      -0.066899    1.243811    0.078452
C      -1.132702    2.339998   -0.084457
C      -0.976033    3.182503    1.216804
C       0.400802    3.572688    0.672238
C       0.025688    3.214267   -0.720117
C       1.023766    2.294425    0.047521
C       2.422237    2.149763   -0.153621
N       3.560861    2.019473   -0.314487
H      -2.098657    2.111942   -0.523559
H      -1.645468    4.045808    1.220827
H      -1.038303    2.650904    2.170971
H       1.072821    4.351554    1.008929
H       0.183564    3.652120   -1.693283
