17

O      -0.157798    1.464397    0.182173
C      -0.007476    0.061469    0.036702
C       0.795710   -0.534553    1.206383
N       0.778744   -1.988497    1.161561
C      -0.310439   -2.753567    0.848190
O      -0.301356   -3.969908    0.894485
C      -1.518354   -1.980355    0.388354
N      -1.978173   -0.889991    1.281700
C      -1.385421   -0.553939   -0.013932
H       0.707791    1.874000    0.084382
H       0.501760   -0.183028   -0.909447
H       1.836631   -0.200929    1.139481
H       0.368289   -0.145337    2.136848
H       1.560955   -2.503773    1.535740
H      -2.260039   -2.606765   -0.094973
H      -2.991182   -0.822001    1.241060
H      -2.031566   -0.182505   -0.804979
