15

C      -0.244906    1.474856   -0.019531
N       0.187590    0.100718    0.076466
C       0.761486   -0.507486   -0.882026
N       1.144120   -1.826905   -0.704529
C       1.770312   -2.614745   -1.637773
N       2.090022   -3.813158   -1.403481
O       2.033616   -2.017485   -2.858924
N       1.688995   -0.695538   -3.140553
C       1.107472   -0.018445   -2.224893
H       0.241024    2.056490    0.772544
H      -0.052700    1.980705   -0.974990
H      -1.322641    1.522655    0.175405
H       0.949786   -2.257347    0.188488
H       2.542651   -4.232602   -2.212093
H       0.870333    0.997517   -2.513621
