18

C       0.127224    1.534850   -0.261378
C       0.001991    0.042028    0.051404
N       0.578858   -0.792987   -1.024184
C       1.841172   -1.155569   -0.573606
N       2.090884   -1.021223    0.673532
C       0.848589   -0.476179    1.264726
C       1.142919    0.520436    2.379624
C       2.786815   -1.699687   -1.511906
N       3.522437   -2.118464   -2.298575
H       1.173220    1.829073   -0.392324
H      -0.414122    1.778015   -1.181999
H      -0.301524    2.140493    0.541991
H      -1.052145   -0.215302    0.187531
H       0.495765   -0.469174   -1.978889
H       0.316151   -1.334526    1.699883
H       1.712828    1.378166    2.013106
H       0.216920    0.886179    2.834581
H       1.736564    0.031853    3.156026
