25

C      -0.407174    1.764703   -0.524587
C      -0.471906    0.235550   -0.437783
C       0.522282   -0.440048   -1.381138
C       1.993058   -0.400416   -0.909259
O       1.983284   -1.808086   -0.607247
C       0.713474   -1.984663   -1.283021
C      -0.252703   -2.881760   -0.517335
C      -1.537715   -3.108738   -1.326089
C       0.432720   -4.213201   -0.177088
H       0.592427    2.137808   -0.275753
H      -0.647631    2.113733   -1.534983
H      -1.115027    2.231145    0.167238
H      -0.272452   -0.080115    0.593590
H      -1.490954   -0.095426   -0.670500
H       0.362915   -0.080606   -2.402251
H       2.724392   -0.155197   -1.691498
H       2.207147    0.206978   -0.020994
H       0.883752   -2.426427   -2.279693
H      -0.510546   -2.383766    0.425414
H      -2.242550   -3.731681   -0.766483
H      -2.044575   -2.169925   -1.570515
H      -1.318489   -3.623521   -2.269157
H       1.351957   -4.042709    0.387944
H      -0.229817   -4.850368    0.417684
H       0.693926   -4.762721   -1.089560
