20

C      -0.208204    1.311017    0.083403
O       0.052940   -0.071374    0.031518
C       0.731760   -0.493436   -1.144105
C       1.430953   -1.818344   -0.806678
C       1.974554   -2.507836   -2.052866
N       1.176675   -3.637787   -2.577861
C       1.226957   -2.354286   -3.325706
C      -0.000453   -1.517606   -3.304412
C      -0.221561   -0.657946   -2.310715
H       0.720996    1.901453    0.039022
H      -0.865140    1.651014   -0.731579
H      -0.707890    1.510126    1.034786
H       1.493229    0.264354   -1.403536
H       2.227971   -1.633150   -0.080356
H       0.691931   -2.467848   -0.329821
H       3.056011   -2.595101   -2.119742
H       1.795543   -4.309800   -3.027810
H       1.792375   -2.351940   -4.255727
H      -0.713649   -1.630276   -4.116978
H      -1.120604   -0.048090   -2.294560
