17

C      -0.050541    1.528783    0.017029
C       0.031779    0.004545   -0.049774
C       0.828903   -0.553813   -1.247072
C       1.273547   -1.925799   -0.721859
C       1.445943   -1.672123    0.788599
O       0.734780   -0.461489    1.095041
C      -1.342602   -0.570571   -0.053065
N      -2.403529   -1.029397   -0.056719
H       0.962153    1.939225    0.026943
H      -0.593014    1.924133   -0.845830
H      -0.566411    1.841922    0.927354
H       0.240943   -0.603898   -2.165228
H       1.687589    0.103275   -1.417745
H       0.492825   -2.670147   -0.901217
H       2.191618   -2.283432   -1.192280
H       1.048414   -2.492750    1.395384
H       2.494203   -1.516007    1.067332
