17

C       0.085455    1.413491    0.135579
N       0.009699   -0.036075    0.048942
C       0.464559   -0.615396   -0.976651
C       0.440971   -2.116473   -1.214646
C       1.443345   -2.338425   -2.354033
O       1.035440   -3.315308   -3.276261
C       1.545236   -0.959821   -3.017180
O       1.958214   -0.743795   -4.132424
N       1.064711   -0.038904   -2.112932
H       1.053681    1.822231   -0.193083
H      -0.703169    1.889191   -0.464289
H      -0.067897    1.719754    1.173114
H       0.659579   -2.663681   -0.298299
H      -0.554087   -2.413281   -1.563366
H       2.441018   -2.570283   -1.943094
H       1.422753   -3.061887   -4.125705
H       1.070689    0.950119   -2.311075
