16

O      -0.517294    1.436298   -0.144723
C      -0.091239    0.115172   -0.088651
C      -1.257480   -0.890537    0.113495
O      -2.504432   -0.440070   -0.417755
C      -2.276440   -1.120963   -1.676174
C      -0.895058   -1.617073   -1.214539
C       0.282655   -0.620659   -1.451502
C       0.265295    0.190527   -2.653139
N       0.252747    0.860841   -3.595673
H       0.229176    1.998969   -0.377985
H       0.712301   -0.041348    0.645334
H      -1.357583   -1.354136    1.097737
H      -3.011284   -1.919239   -1.832371
H      -2.290757   -0.438696   -2.532882
H      -0.665500   -2.675889   -1.311560
H       1.253889   -1.116888   -1.376340
