18

C      -0.190204    1.507481    0.029141
C      -0.069202    0.004022    0.006944
C       0.051278   -0.676211   -1.219953
C       0.064437    0.052355   -2.539619
C       0.159753   -2.064487   -1.177876
F       0.276110   -2.739459   -2.335000
C       0.154277   -2.794781    0.001536
C       0.034574   -2.107606    1.203057
C      -0.075960   -0.719887    1.200818
H       0.679162    1.990486   -0.432588
H      -1.070521    1.851070   -0.526993
H      -0.275077    1.879232    1.052961
H       0.164447   -0.646170   -3.370275
H      -0.856960    0.627450   -2.687221
H       0.894525    0.766234   -2.593159
H       0.242720   -3.873637   -0.042911
H       0.027552   -2.654116    2.139890
H      -0.169305   -0.186053    2.141172
