21

C       0.189817    1.605891   -0.010058
C       0.126899    0.078631    0.012124
C       0.649887   -0.591572   -1.287913
C       1.224406   -1.991953   -1.027903
C       0.413807   -2.720621    0.081291
C       1.282792   -1.934893    1.108063
C       2.385318   -1.894740   -0.003187
C       0.784967   -0.512753    1.269755
O       0.897093    0.108482    2.301293
H       1.222313    1.950976   -0.130270
H      -0.399383    2.007487   -0.840367
H      -0.190298    2.019055    0.926235
H      -0.928835   -0.212731    0.125028
H      -0.161959   -0.642810   -2.022055
H       1.432020    0.036205   -1.733274
H       1.413743   -2.524587   -1.962860
H      -0.672045   -2.594751    0.109400
H       0.649889   -3.787161    0.117304
H       1.520133   -2.371555    2.078401
H       2.993073   -2.802660    0.024490
H       3.042994   -1.021276   -0.045954
