20

C      -0.025485    1.514140    0.105762
C      -0.162649   -0.000170    0.282557
C      -1.461438   -0.554132   -0.320673
C      -1.575266   -2.057584   -0.190527
C      -1.889584   -2.769410    1.095837
O      -2.551667   -2.009073    2.103043
C      -3.755268   -1.676310    1.564469
N      -4.046522   -2.094092    0.399557
C      -2.885958   -2.824988   -0.057400
H       0.905408    1.885059    0.545804
H      -0.026589    1.791213   -0.954377
H      -0.855168    2.045267    0.585547
H       0.697479   -0.503140   -0.178855
H      -0.130336   -0.254579    1.348878
H      -2.319169   -0.063920    0.150887
H      -1.515941   -0.291208   -1.385173
H      -0.845541   -2.609583   -0.780018
H      -1.292726   -3.573617    1.506741
H      -4.383282   -1.065262    2.201311
H      -3.076575   -3.687825   -0.684019
