19

C      -0.039302    1.594357    0.092215
C       1.491810    1.417099   -0.067538
C       1.864041    0.842568    1.349085
C       1.116794   -0.450368    1.074700
C       0.907856   -1.897024    1.508943
O       1.156626   -2.317428    0.131100
C       1.832526   -1.047702   -0.146673
C       1.158131    0.064475   -0.918774
C      -0.037780    0.065631    0.073218
H      -0.401936    2.135877    0.972345
H      -0.514425    1.994445   -0.808646
H       2.126237    2.202702   -0.476423
H       2.933766    0.685586    1.511048
H       1.475981    1.487272    2.142837
H       1.673768   -2.296003    2.188734
H      -0.087653   -2.194488    1.854474
H       2.918304   -1.187663   -0.194713
H       1.072881    0.181042   -2.000657
H      -0.922476   -0.557808   -0.031914
