16

C       0.171391   -1.236461   -0.144520
C       0.102861   -0.043123   -0.019671
C       0.038770    1.383037    0.110977
C       0.197966    2.280039   -1.101221
C       1.279594    2.235908   -0.051798
C       1.465529    3.382375    0.927124
N       0.335853    3.665487    1.800344
C      -0.660060    2.892703    1.812162
O      -0.920381    1.779232    1.076297
H       0.226355   -2.291918   -0.249447
H       0.375859    1.806178   -2.058935
H      -0.449664    3.150871   -1.125654
H       2.181730    1.692980   -0.312791
H       2.325570    3.160651    1.571132
H       1.720990    4.307229    0.393482
H      -1.499740    3.076203    2.479196
