19

O      -0.137845    1.407124   -0.426333
C       0.031642    0.097846    0.114851
C      -1.313680   -0.576267    0.067085
C      -1.880889   -1.290713   -1.151562
C      -0.899120   -1.760691   -2.172095
C      -0.081344   -2.691267   -1.678813
C      -0.411675   -3.030242   -0.231830
O       0.684294   -2.846172    0.669169
C      -1.548175   -2.069183    0.109359
H       0.700051    1.870464   -0.337198
H       0.781142   -0.473713   -0.442491
H       0.369355    0.141405    1.161341
H      -2.065372   -0.011550    0.613932
H      -2.901790   -1.073249   -1.444446
H      -0.852238   -1.346139   -3.173072
H       0.751789   -3.149992   -2.201719
H      -0.771394   -4.069094   -0.148381
H       1.376246   -3.468278    0.422010
H      -2.327971   -2.431040    0.768199
