19

C       0.542514    1.404471    0.202016
C      -0.280798    0.151961   -0.124310
C       0.199969   -0.518143   -1.389609
O       1.436446   -1.243066   -1.322787
C       0.238906   -1.969826   -1.633540
C      -0.195170   -3.040546   -0.660764
C       0.695163   -4.286216   -0.754213
H       1.596370    1.144904    0.339420
H       0.481825    2.140774   -0.606897
H       0.185690    1.883869    1.118266
H      -0.231282   -0.549560    0.713181
H      -1.337313    0.421381   -0.254230
H       0.126229    0.118677   -2.276234
H       0.190704   -2.285067   -2.680146
H      -0.174972   -2.649463    0.360324
H      -1.237294   -3.307460   -0.880817
H       0.665865   -4.720046   -1.759746
H       1.735212   -4.031177   -0.530337
H       0.371865   -5.056493   -0.047947
