16

C      -0.005221   -1.226214    0.097008
C       0.011386   -0.023149    0.095481
C       0.019383    1.411455    0.077192
C       0.530697    2.245083    1.197076
C       1.671044    1.539657    1.951877
C       2.382824    1.488081    0.557694
N       1.258632    2.223343   -0.120659
C       2.337063    2.336667    2.960753
C       2.892013    3.005218    3.791751
H      -0.027501   -2.288164    0.095687
H      -0.803544    1.855830   -0.477403
H      -0.002834    3.119789    1.554775
H       1.387570    0.564753    2.361189
H       3.283608    2.100024    0.521954
H       2.580612    0.495033    0.148089
H       3.383014    3.590201    4.529438
