15

O       0.349749   -0.233195    0.290904
C       0.320686    0.746639   -0.405902
C       0.885526    2.101347    0.001388
N       0.688778    3.060025   -1.058719
C       1.114932    4.245696   -0.855794
N       1.016908    5.304139   -1.756855
C       1.582697    6.417183   -1.190454
N       2.042672    6.188542   -0.003444
N       1.757086    4.852084    0.207108
H      -0.128873    0.745484   -1.423760
H       0.388943    2.382175    0.948616
H       1.948699    1.939264    0.258489
H       0.590481    5.213659   -2.661933
H       1.634869    7.373422   -1.685707
H       2.019079    4.424769    1.075789
