15

C      -0.043038    1.489320    0.061533
C       0.117754   -0.017940   -0.005218
O       0.644936   -0.458860    1.249375
C       0.851727   -1.784391    1.367738
N       1.313550   -2.272563    2.430748
C       1.504930   -3.706252    2.475197
H       0.920894    1.970435    0.247204
H      -0.445414    1.866116   -0.883353
H      -0.726913    1.767205    0.867885
H      -0.848544   -0.505640   -0.194204
H       0.802413   -0.301940   -0.816313
H       0.584560   -2.371189    0.473112
H       0.922036   -4.130392    3.300984
H       1.217230   -4.227647    1.546776
H       2.557579   -3.931215    2.682319
