20

C      -0.005230    1.415023    0.102087
C      -0.015384   -0.114560    0.164449
C       0.586306   -0.747737   -1.092197
C       0.622568   -2.254098   -1.121365
C       1.297099   -2.918889   -2.305192
C       2.733013   -3.281492   -1.950501
O       3.700038   -2.812057   -2.491263
N       0.112830   -2.895652   -0.141508
O       0.240330   -4.287937   -0.296149
H       1.014153    1.804083    0.001034
H      -0.585224    1.784480   -0.751201
H      -0.437409    1.848751    1.008863
H       0.540752   -0.459566    1.042645
H      -1.038938   -0.479985    0.297841
H       0.038256   -0.406845   -1.983634
H       1.614859   -0.386479   -1.242591
H       0.761359   -3.843894   -2.544518
H       1.311877   -2.254095   -3.171137
H       2.823257   -4.016098   -1.123844
H      -0.215013   -4.621092    0.484210
