17

C      -0.047262    1.446566    0.032002
N       0.018896   -0.001045   -0.028534
C       0.053992   -0.781819   -1.145241
C       0.051736   -2.094258   -0.726834
C       0.093270   -3.322131   -1.585890
C       0.010787   -1.993737    0.693429
C      -0.000786   -3.101454    1.656683
O      -0.029334   -2.994756    2.860379
N      -0.010962   -0.712829    1.095145
H       0.616208    1.879848   -0.719963
H      -1.068604    1.799891   -0.142620
H       0.273312    1.752260    1.027242
H       0.080727   -0.349265   -2.133497
H       0.977638   -3.934476   -1.379791
H      -0.783860   -3.958910   -1.428889
H       0.119058   -3.053302   -2.645363
H       0.018793   -4.104577    1.172990
