18

O       0.844168   -0.654605    0.404202
C       0.333955    0.437394    0.281046
N       0.988206    1.579443   -0.074886
C       2.399286    1.638734   -0.356771
C       2.873587    2.251663   -1.700573
C       4.077217    2.900987   -0.933029
C       3.274415    2.675610    0.395210
C       5.312135    2.144484   -1.016195
C       6.329186    1.505945   -1.081456
H      -0.745719    0.622804    0.450013
H       0.447008    2.427882   -0.142984
H       2.782483    0.626584   -0.225313
H       3.106060    1.569005   -2.518696
H       2.184257    3.023688   -2.056700
H       4.266390    3.948540   -1.181116
H       2.702862    3.572204    0.654955
H       3.830568    2.335279    1.269429
H       7.230241    0.947380   -1.140721
