21

C      -0.001399    1.591394    0.100595
C       0.046349    0.078444    0.085212
C      -1.232075   -0.551499   -0.341229
O      -2.230035    0.051862   -0.651855
C       1.267522   -0.756817   -0.323275
C       2.634583   -0.087839   -0.392709
C       2.916370    0.490805    1.022269
C       1.866327   -0.136308    1.981701
C       0.806931   -0.785847    1.100243
H       0.937834    2.046084    0.412062
H      -0.251330    1.969602   -0.895087
H      -0.789403    1.935782    0.776877
H      -1.210818   -1.667715   -0.357050
H       1.083437   -1.593275   -0.990288
H       3.375143   -0.851612   -0.653156
H       2.693029    0.681863   -1.169213
H       3.935041    0.262680    1.347207
H       2.838330    1.580277    1.019280
H       2.323190   -0.917993    2.598027
H       1.449816    0.603424    2.673169
H       0.277103   -1.644092    1.501689
