18

C       0.000585    1.553254    0.012447
C       0.157119    0.030891    0.018950
C       0.558740   -0.514815   -1.350266
N       0.690191   -1.968145   -1.309137
C       1.312623   -2.673402   -2.282883
C       1.356562   -4.036197   -2.533281
N       2.172636   -4.200209   -3.607040
N       2.632687   -3.137506   -4.055241
O       2.054924   -2.035926   -3.162392
H       0.939282    2.046215   -0.261461
H      -0.763901    1.871986   -0.704107
H      -0.293384    1.921014    0.999320
H       0.909539   -0.271321    0.756478
H      -0.789319   -0.433303    0.329911
H      -0.174828   -0.204805   -2.110237
H       1.524369   -0.103220   -1.656667
H      -0.012044   -2.470176   -0.788546
H       0.880264   -4.857524   -2.027998
