15

C       0.015215   -1.175073   -0.020271
C      -0.001477    0.028978   -0.026939
C      -0.044687    1.446987   -0.011664
C       0.260902    2.319089   -1.214657
C       1.086430    2.480133    0.020419
N       0.491164    3.218667    1.198234
C      -0.869637    3.702810    0.876719
C      -0.669451    2.266540    1.146773
H       0.037046   -2.236373   -0.018348
H       0.779002    1.778802   -2.000333
H      -0.438503    3.058406   -1.587064
H       2.156046    2.317961    0.040833
H      -1.279535    4.295029    1.690075
H      -1.113827    4.083353   -0.107615
H      -1.018581    1.772522    2.047127
