15

C      -0.039927    1.530912   -0.085643
C       0.126948    0.052400    0.000403
O      -0.822572   -0.746799    0.706100
C       0.553825   -0.871130    1.052103
C       1.239945   -1.819824   -0.015358
O       0.264624   -2.187870   -0.985285
C       0.798340   -0.890626   -1.088358
C       2.512530   -2.559897    0.101606
O       2.918640   -3.363587   -0.699014
H       0.894232    2.008458   -0.399015
H      -0.813728    1.791051   -0.816228
H      -0.332442    1.937595    0.885659
H       0.856187   -0.712325    2.080292
H       1.311817   -0.606011   -2.000054
H       3.093139   -2.296140    1.014545
