20

C       0.118665    1.493662    0.285671
C       0.084020   -0.018723    0.034245
C      -1.310531   -0.560739   -0.118790
C      -2.214508   -0.909023    1.032774
C      -1.749353   -1.986924    0.064978
C      -2.659224   -2.302411   -1.103720
C      -2.825155   -0.965590   -1.812620
N      -3.613967   -0.737295   -2.770120
O      -1.987023   -0.032701   -1.257904
H       1.148684    1.849613    0.379997
H      -0.354425    2.033456   -0.539086
H      -0.415235    1.751865    1.205916
H       0.655979   -0.260344   -0.870182
H       0.565644   -0.550275    0.863271
H      -1.781750   -0.917663    2.027471
H      -3.248424   -0.580783    0.989224
H      -1.056819   -2.740817    0.419714
H      -2.197785   -3.020156   -1.789755
H      -3.636724   -2.704159   -0.824731
H      -3.542457    0.236422   -3.069689
