19

C      -0.128956    1.539494    0.076124
C       0.038907    0.027702    0.044825
C       1.192048   -0.594305   -0.837492
C       2.166931   -0.259588    0.341870
C       0.921467   -0.675514    1.188115
C       0.741039   -0.301388    2.618196
O       1.434423    0.489411    3.210784
C       0.749704   -2.138542    0.747701
C       0.945183   -2.083405   -0.573291
H       0.805911    2.079181    0.241075
H      -0.551845    1.883277   -0.874635
H      -0.825487    1.834356    0.868253
H      -0.931585   -0.455336   -0.097790
H       1.372830   -0.261076   -1.859513
H       3.053174   -0.888052    0.444867
H       2.432020    0.793904    0.436336
H      -0.125019   -0.790885    3.124204
H       0.530301   -2.977195    1.393271
H       0.930713   -2.875219   -1.308689
