21

C       0.163247    1.470786   -0.339846
C       0.034580    0.007779   -0.001031
O       1.248363   -0.746228    0.117044
C       0.432926   -0.574669    1.288143
C       1.059998    0.209191    2.453764
C       0.706252   -0.606221    3.714297
C       0.498775   -2.043177    3.196571
O      -0.286788   -2.867151    4.038740
C      -0.220795   -1.826427    1.862803
H       0.956328    1.945728    0.242214
H       0.398847    1.596734   -1.401828
H      -0.778720    1.994619   -0.142352
H      -0.748936   -0.516810   -0.554493
H       2.141648    0.252477    2.293225
H       0.701918    1.240643    2.513287
H       1.468143   -0.535721    4.496696
H      -0.243964   -0.268676    4.144243
H       1.480189   -2.508089    3.007240
H       0.202052   -3.014984    4.854280
H      -1.281373   -1.646131    2.079555
H      -0.149332   -2.671497    1.175543
