21

C      -0.247711    1.514865   -0.131305
C      -0.001742    0.024410    0.002318
O       0.943418   -0.503662   -1.008053
C       1.937030   -0.635782    0.012663
C       2.962979   -1.649059    0.573427
C       3.185679   -0.423657    1.566121
C       2.976551    0.472835    0.320159
C       1.824301   -0.161893    2.307222
C       0.911543   -0.575817    1.124812
H       0.665564    2.103373   -0.028641
H      -0.682822    1.732593   -1.111766
H      -0.958283    1.842577    0.635723
H      -0.952262   -0.511711   -0.088242
H       2.579230   -2.593655    0.966591
H       3.859611   -1.812192   -0.029043
H       4.101516   -0.370027    2.153044
H       3.817576    0.451137   -0.376333
H       2.642451    1.499195    0.482335
H       1.665519   -0.786263    3.190282
H       1.759870    0.884730    2.619180
H       0.518771   -1.578156    1.316834
