19

C      -0.189774    1.387258   -0.121532
C       1.245025    1.011564    0.145688
C       0.178353   -0.058118    0.109265
C      -0.250935   -0.735599    1.355722
N      -0.312393   -0.069086    2.704548
C      -0.780377   -1.468760    2.972074
C      -1.568694   -1.533216    1.630309
N      -0.962574   -2.817548    1.147519
C       0.144867   -2.154081    1.909887
H      -0.728600    1.888790    0.674378
H      -0.469525    1.688402   -1.124756
H       1.955252    1.047707   -0.672817
H       1.662195    1.285261    1.108987
H       0.171316   -0.715151   -0.755090
H       0.634601    0.053029    3.074728
H      -1.079079   -1.822079    3.960872
H      -2.594366   -1.226893    1.425119
H      -1.336697   -3.604376    1.684892
H       1.139904   -2.587823    2.033364
