19

C      -0.178555    1.340413   -0.221464
O       1.058424    1.730695    0.419249
C       1.475965    0.356610    0.552987
C       1.116483   -0.244688    1.928852
C      -0.239567   -0.745599    1.350950
C      -0.635689   -2.232517    1.466822
O      -1.919959   -1.902362    2.027502
C      -1.605328   -0.495391    2.020630
C       0.130722   -0.155275   -0.036789
H      -1.061556    1.739532    0.293455
H      -0.203627    1.667063   -1.268808
H       2.470186    0.178337    0.135883
H       1.772399   -1.061953    2.245984
H       1.057166    0.496825    2.729692
H      -0.726660   -2.781616    0.519996
H      -0.021621   -2.820765    2.162936
H      -1.555055   -0.079339    3.035809
H      -2.331401    0.083823    1.435552
H       0.028857   -0.808802   -0.903271
