17

O      -0.362112    0.724617   -0.852164
C       0.244989    0.985203    0.155463
C       1.478514    1.818642    0.189309
C       1.609347    2.830975    1.280425
N       2.356569    1.531194    1.353230
C       3.639711    2.290907    1.090653
C       2.880921    3.623389    1.080150
C       3.086138    4.914704    0.391172
N       3.309140    4.780889    1.847933
H      -0.078941    0.620360    1.155181
H       1.920108    2.029795   -0.781907
H       0.794582    3.072381    1.958433
H       4.306781    2.198865    1.949599
H       4.156072    1.978180    0.178365
H       3.987562    5.086120   -0.190766
H       2.207572    5.449701    0.038901
H       2.529619    5.180431    2.366011
