16

C      -0.041347    1.521154    0.140166
C      -0.072318    0.017338    0.349416
C      -1.225333   -0.793005   -0.056719
O      -0.020269   -0.788116   -0.825825
C       1.330822    2.051543   -0.085586
C       1.994292    2.599392   -1.132515
N       3.298316    2.903249   -0.754487
C       3.359759    2.528235    0.478777
O       2.211960    2.001155    0.968466
H      -0.658484    1.771944   -0.727305
H      -0.487778    2.008818    1.017051
H       0.550466   -0.345897    1.167662
H      -1.447212   -1.722886    0.464597
H      -2.081295   -0.310131   -0.527272
H       1.631248    2.795936   -2.128685
H       4.195843    2.582669    1.158093
