20

C      -0.019735    1.563445    0.016835
C       0.045601    0.035356    0.026492
C       0.786039   -0.567066   -1.196730
C       1.300379   -1.945784   -0.731992
C       1.528071   -1.785208    0.766533
O       1.528134   -2.936603    1.558244
C       2.286207   -0.566416    1.231827
C       0.763830   -0.576563    1.224683
H       0.985505    1.998111    0.052779
H      -0.512485    1.932805   -0.889375
H      -0.577884    1.944953    0.878298
H      -0.981769   -0.355086    0.033829
H       0.141825   -0.633030   -2.077858
H       1.626923    0.079452   -1.473253
H       0.534722   -2.718382   -0.869338
H       2.194264   -2.269112   -1.278733
H       2.382651   -3.368669    1.452833
H       2.748323   -0.647899    2.209594
H       2.835969    0.045006    0.522852
H       0.267363   -0.586588    2.188881
