19

C      -0.074631    1.554891   -0.048501
C      -0.004745    0.044881    0.039123
N      -1.187703   -0.585229   -0.460760
C       1.389941   -0.645541   -0.194443
C       2.578940    0.109540   -0.425157
N       3.535272    0.740908   -0.601283
C       0.685840   -0.634310    1.179828
C       1.282744    0.114984    2.347442
O       0.090448   -1.851879    1.536712
H       0.864163    2.039537    0.222278
H      -0.309116    1.850056   -1.077036
H      -0.874704    1.928760    0.596343
H      -1.257397   -0.500047   -1.469038
H      -1.220262   -1.563889   -0.201967
H       1.336197   -1.595885   -0.714807
H       1.778723    1.036760    2.041344
H       0.502098    0.355594    3.074979
H       2.034883   -0.508312    2.845649
H       0.767024   -2.414708    1.929543
