15

O       0.532334    0.850227   -0.715431
C       0.120269   -0.308423   -0.057498
C       0.074074   -0.364770    1.485153
O       0.678391    0.230397    2.329901
C      -1.222539   -1.197672    1.465960
C      -1.369487   -0.732223    0.008517
C      -2.477121    0.022106   -0.610182
N      -2.165721   -1.365372   -1.025330
H       0.372733    1.600051   -0.130659
H       0.721097   -1.143381   -0.445683
H      -1.036718   -2.273085    1.557710
H      -1.989093   -0.901954    2.184800
H      -3.420680    0.139496   -0.084369
H      -2.212695    0.835619   -1.280955
H      -1.663919   -1.356273   -1.911342
