19

C      -0.011935    1.427910   -0.131922
O      -0.020000    0.028518    0.033053
C      -1.306980   -0.563612    0.027571
C      -1.831331   -0.776207   -1.394748
C      -1.165784   -1.903959    0.776206
C      -0.830842   -1.745205    2.181738
C      -0.568759   -1.613411    3.355732
C      -0.271692   -1.460804    4.674867
C      -0.009765   -1.326776    5.846275
H       1.027097    1.753796   -0.042472
H      -0.390657    1.741750   -1.115971
H      -0.608666    1.929757    0.644990
H      -2.008489    0.075833    0.586782
H      -2.831557   -1.220741   -1.379927
H      -1.898026    0.172365   -1.934298
H      -1.161767   -1.439233   -1.951885
H      -2.101768   -2.468343    0.680801
H      -0.387315   -2.490899    0.271717
H       0.222814   -1.208076    6.875059
