14

C      -0.023683    1.501607    0.035921
C      -0.000557    0.002421   -0.011543
C       0.070203   -0.719545   -1.212973
N       0.089771   -2.038405   -1.231282
C       0.036844   -2.622679   -0.017717
N      -0.031761   -1.979395    1.157458
N      -0.050208   -0.653703    1.151235
C       0.054548   -4.050546    0.034738
C       0.069603   -5.251678    0.076258
H       0.879423    1.924719   -0.417275
H      -0.881361    1.900904   -0.516220
H      -0.086165    1.832360    1.073573
H       0.111261   -0.207685   -2.173083
H       0.082782   -6.313295    0.115371
