19

C      -1.443350   -0.115072    0.107944
C       0.061570    0.134307   -0.005355
C       0.851242   -0.470017    1.180771
C       2.240584    0.168647    1.401065
O       2.152116    1.583055    1.561175
C       2.925981   -0.461364    2.532013
C       3.448374   -0.964239    3.490798
C       0.611311   -0.370437   -1.325793
O      -0.052275   -0.850054   -2.209871
H      -1.843561    0.350545    1.013303
H      -1.970930    0.291230   -0.757715
H      -1.661342   -1.186865    0.147890
H       0.263289    1.215856    0.010830
H       0.267971   -0.327047    2.098132
H       0.971264   -1.553225    1.059326
H       2.852596    0.034135    0.501431
H       1.818756    1.754485    2.449314
H       3.930122   -1.409599    4.326331
H       1.714999   -0.270304   -1.445736
