21

C      -0.531254    0.507065    0.439595
O       0.563360   -0.377594    0.247900
C       0.961675   -0.532421   -1.119864
C       2.431649   -0.968112   -1.138404
C       2.410044   -2.510227   -0.923739
C       0.934301   -2.944430   -1.074406
O       0.283501   -3.194660    0.172325
C       0.242876   -1.743243   -1.763696
O      -1.155848   -1.769528   -1.612898
H      -0.267451    1.525302    0.117962
H      -1.418854    0.178624   -0.109675
H      -0.743627    0.522729    1.511664
H       0.783571    0.406351   -1.658370
H       2.869445   -0.719304   -2.109914
H       3.000535   -0.433594   -0.375207
H       3.046828   -3.020874   -1.651171
H       2.766566   -2.798263    0.068294
H       0.821081   -3.868384   -1.646281
H       0.377650   -2.377269    0.686442
H       0.476286   -1.745663   -2.837415
H      -1.307317   -2.331005   -0.837355
