23

C       0.023244    1.576982   -0.028891
C       0.033930    0.051086    0.067328
O       0.677865   -0.384087    1.264109
C      -1.370690   -0.553672   -0.066416
C      -1.370753   -2.084784   -0.070923
C      -2.776640   -2.681424   -0.106635
C      -2.802884   -4.203558   -0.190343
C      -4.171123   -4.857031   -0.081999
O      -1.795390   -4.856603   -0.336240
H       1.035056    1.972305    0.094751
H      -0.366277    1.912198   -0.995634
H      -0.611973    2.011462    0.753856
H       0.665173   -0.351626   -0.735276
H       0.194584   -0.005059    2.007132
H      -1.990921   -0.178494    0.762993
H      -1.835475   -0.173290   -0.986333
H      -0.804618   -2.455438   -0.932632
H      -0.836585   -2.448362    0.811789
H      -3.362939   -2.373735    0.771180
H      -3.344349   -2.298612   -0.968662
H      -4.873949   -4.414342   -0.796174
H      -4.085478   -5.929602   -0.260169
H      -4.587076   -4.687843    0.918165
