15

N      -0.471852    1.045084    0.054592
C      -0.622249   -0.171028   -0.240690
O      -0.575653   -1.104201    0.740041
C      -0.802479   -2.455933    0.329677
C      -2.241676   -2.742485    0.062172
N      -2.850068   -2.749353   -1.083617
C      -4.175548   -3.018431   -0.772679
C      -4.291583   -3.162089    0.568807
O      -3.055880   -2.988998    1.118608
H      -0.515309    1.613678   -0.788686
H      -0.792125   -0.590815   -1.240005
H      -0.232688   -2.691711   -0.574776
H      -0.437755   -3.070345    1.154514
H      -4.937052   -3.090219   -1.532400
H      -5.097478   -3.375079    1.249581
