23

C      -0.162195    1.618372    0.004391
C      -0.058115    0.089151   -0.029186
C       0.729344   -0.465905   -1.222532
C       2.218408   -0.100588   -1.189334
O       2.919713   -0.712532   -2.263921
C       2.774275   -2.116268   -2.332371
C       3.582698   -2.850479   -1.257329
O       1.417594   -2.510583   -2.363227
C       0.636747   -1.994021   -1.294789
H       0.817908    2.093630    0.112162
H      -0.617719    2.002655   -0.914770
H      -0.779538    1.949147    0.845136
H       0.397412   -0.268436    0.904568
H      -1.069731   -0.337097   -0.051888
H       0.310386   -0.065223   -2.155132
H       2.377377    0.973607   -1.312268
H       2.650547   -0.389274   -0.216430
H       3.162680   -2.385821   -3.319259
H       3.245413   -2.626628   -0.242658
H       3.497325   -3.929142   -1.413548
H       4.634623   -2.563518   -1.336706
H       0.942605   -2.433706   -0.330908
H      -0.389301   -2.319733   -1.490979
