17

C       0.067058    1.353784   -0.059185
C       1.426516    2.087727    0.157392
N       2.356166    1.205045    0.875735
C       2.185646    1.154598    2.271637
N       2.077636    0.008930    2.823209
C       1.980379   -0.926001    1.731120
C       0.887420   -0.701180    0.679844
O      -0.089934    0.277429    0.863468
C       2.277201   -0.184326    0.437018
H      -0.775246    2.027003    0.113715
H      -0.002209    0.975917   -1.088154
H       1.859781    2.385171   -0.803169
H       1.292670    2.995847    0.752137
H       2.178582    2.092421    2.818945
H       2.294126   -1.945645    1.914224
H       0.551039   -1.589693    0.149762
H       2.926950   -0.495877   -0.373638
