16

N       0.130414    1.402004   -0.064958
C      -0.027553    0.003363   -0.004018
C      -1.125160   -0.826066   -0.020555
C      -0.646899   -2.168590   -0.016078
C       0.722687   -2.123173    0.012770
N       1.101965   -0.794875   -0.000236
C       2.453834   -0.291803   -0.017954
C       2.968149    0.045080    1.321409
N       3.359999    0.325338    2.371260
H       0.314777    1.817311    0.844510
H      -0.697375    1.842127   -0.446688
H      -2.154819   -0.502459   -0.028161
H      -1.246668   -3.065546   -0.024002
H       1.464282   -2.904771    0.048928
H       3.111353   -1.036438   -0.475278
H       2.480950    0.614820   -0.630906
