16

C       0.517280    1.111724    0.623929
C      -0.300919    0.424705   -0.471655
C       0.522002   -0.366039   -1.438199
C       1.868380   -0.576974   -1.510254
N       2.041502   -1.383861   -2.606588
C       3.258362   -1.888141   -3.108924
O       3.360162   -2.589374   -4.069541
N       0.831054   -1.655725   -3.185140
N      -0.063584   -1.050175   -2.488405
H       1.069341    0.382537    1.226272
H       1.240410    1.816190    0.199524
H      -0.136122    1.672110    1.297482
H      -1.046320   -0.243453   -0.023239
H      -0.877527    1.168754   -1.034750
H       2.696665   -0.243607   -0.908900
H       4.105151   -1.542985   -2.487971
