20

C       0.049555    1.383805    0.035402
N      -0.014004   -0.065771   -0.028940
C      -0.113509   -0.824258    1.203500
C      -1.488231   -0.728621    1.889067
C      -1.524882   -1.547208    3.156100
C      -2.693960   -2.342791    3.547918
O      -1.538836   -2.969070    2.986837
C       0.047395   -0.689933   -1.241720
O       0.127228   -0.136765   -2.318344
H       0.869678    1.703248    0.689767
H       0.223505    1.751661   -0.975873
H      -0.883902    1.815383    0.414673
H       0.089395   -1.875382    0.976525
H       0.670327   -0.488150    1.897056
H      -1.721982    0.315147    2.131387
H      -2.258866   -1.085907    1.197634
H      -0.856186   -1.210341    3.951347
H      -2.877700   -2.556395    4.599844
H      -3.579332   -2.340838    2.913405
H       0.018069   -1.791976   -1.133194
