18

O       0.083040    1.478720    0.624880
C       0.107179    0.118158    0.299223
C      -0.606709   -0.871078    1.182140
C      -1.190289   -0.488330   -0.165523
C      -2.442526    0.340586   -0.221984
C      -2.927394    0.842652   -1.619400
N      -4.149904    0.065591   -1.399904
C      -3.791816   -0.434971   -0.171393
O      -4.335619   -1.179206    0.599757
H       0.611872    1.603388    1.419486
H       1.017039   -0.210920   -0.202475
H      -0.191690   -1.864547    1.309174
H      -1.108453   -0.473285    2.058003
H      -1.107433   -1.236145   -0.950123
H      -2.403284    1.141107    0.518951
H      -3.084647    1.922497   -1.700089
H      -2.322854    0.496158   -2.464228
H      -4.987351   -0.050254   -1.950664
