15

C      -0.045093    1.489289    0.033436
C      -0.001902   -0.007045    0.012819
N      -0.024824   -0.561552   -1.144331
O       0.018620   -1.979862   -1.161701
C       0.080800   -2.647836    0.010128
N       0.162375   -3.983322   -0.205070
N       0.094582   -2.143684    1.195426
C       0.060210   -0.761086    1.288210
N       0.073462   -0.095697    2.381020
H       0.838400    1.875983    0.548824
H      -0.091793    1.882695   -0.982886
H      -0.911383    1.824962    0.610068
H      -0.087669   -4.338176   -1.112614
H       0.019927   -4.573868    0.596973
H       0.116298   -0.750921    3.165338
