15

O       0.165296    1.347952   -0.133608
C       0.038201   -0.048898   -0.123600
C      -1.382066   -0.540053    0.008612
N      -2.272930    0.383682    0.086590
O      -3.611929    0.020435    0.209485
C      -3.937161   -1.285022    0.243618
C      -3.057216   -2.295036    0.166904
C      -1.646416   -1.993887    0.037216
N      -0.646726   -2.795256   -0.051603
H      -0.723329    1.719973   -0.064185
H       0.453163   -0.489870   -1.042052
H       0.616601   -0.489947    0.701306
H      -5.010627   -1.400215    0.341833
H      -3.405488   -3.320359    0.202161
H      -0.959610   -3.768007   -0.020121
