15

C      -0.028733    1.547754   -0.003355
C       0.000616   -0.005301    0.001141
C       0.749078   -0.533836    1.255448
C      -1.387496   -0.511462    0.021832
N      -2.477278   -0.891212    0.067273
C       0.663271   -0.491967   -1.213042
C       1.246114   -0.870457   -2.199708
C       1.903555   -1.300193   -3.317463
N       2.466465   -1.663066   -4.266097
H       0.994997    1.928690   -0.017080
H      -0.559308    1.924791   -0.879326
H      -0.532683    1.905841    0.897493
H       0.245914   -0.177905    2.157589
H       0.767104   -1.624948    1.267318
H       1.776134   -0.161801    1.247125
