19

C       0.031390   -1.217680    0.046918
C       0.004295   -0.015993    0.012829
C      -0.015168    1.439787    0.007908
C      -0.759818    1.987875    1.242573
O      -0.945832    3.387263    1.153763
C       0.199082    4.145349    0.884198
C       1.469124    4.022813    1.676960
C       1.415074    3.535164    0.233421
C       1.414945    2.035578   -0.051573
H       0.048956   -2.279217    0.062604
H      -0.574443    1.789498   -0.870170
H      -1.761798    1.558099    1.307555
H      -0.215024    1.708070    2.157553
H      -0.109143    5.137975    0.574319
H       2.018672    4.929609    1.904701
H       1.527602    3.262202    2.448843
H       1.925876    4.147462   -0.502548
H       2.046815    1.501798    0.666616
H       1.838820    1.840237   -1.040281
