13

C      -0.012314   -1.115040   -0.052565
C      -0.007362    0.086236   -0.010526
C       0.013929    1.514903    0.070909
C      -0.672463    2.455860    1.105698
C      -0.080178    3.307458   -0.039306
C       1.228811    2.489152    0.023783
O      -0.617218    2.326977   -1.013173
H      -0.018329   -2.176295   -0.096335
H      -1.760270    2.391005    1.124325
H      -0.223229    2.529814    2.098806
H      -0.225972    4.362466   -0.263060
H       1.851138    2.566126    0.918393
H       1.801791    2.453357   -0.902656
