20

O       0.073683    0.040518   -0.184766
C      -0.007486    1.242675   -0.014600
C      -1.363871    1.946333    0.018885
C      -1.854291    2.397883   -1.370936
C      -1.080506    3.564592   -1.984576
O       0.266569    3.202799   -2.264158
C       1.261916    3.827182   -1.488294
C       1.217001    3.433418    0.000500
N       1.117631    2.003791    0.213704
H      -2.057952    1.198142    0.408424
H      -1.368530    2.792504    0.714798
H      -1.802647    1.545291   -2.057016
H      -2.909856    2.687769   -1.298921
H      -1.547038    3.848638   -2.936459
H      -1.120602    4.447310   -1.329414
H       2.212513    3.504557   -1.927083
H       1.209836    4.925879   -1.570086
H       2.121705    3.806092    0.493589
H       0.375045    3.926671    0.493879
H       1.963963    1.465218    0.081622
