20

C      -0.484887    1.642975    0.024284
C       0.097164    0.234538    0.063247
C      -0.988086   -0.818318   -0.158785
O      -1.537967   -0.616532   -1.451799
C       1.334348   -0.023448   -0.851636
C       2.100954   -0.651821    0.361081
C       0.970393   -0.119228    1.305903
C       2.224737   -2.099986    0.321056
N       2.307027   -3.253668    0.288764
H       0.298279    2.397362    0.153577
H      -0.986782    1.824827   -0.929785
H      -1.221533    1.783577    0.824188
H      -0.556476   -1.826390   -0.066396
H      -1.756559   -0.714548    0.625757
H      -2.150983   -1.333483   -1.636909
H       1.166121   -0.671509   -1.712072
H       1.815327    0.897080   -1.189003
H       3.089564   -0.226817    0.548696
H       1.297242    0.764359    1.858511
H       0.554842   -0.841338    2.012597
