20

C      -0.424277    1.455191   -0.058340
C      -0.433676   -0.030343   -0.369622
O      -1.366311   -0.658962    0.509399
C      -1.462513   -2.025173    0.325137
C      -2.789409   -2.637947    0.670370
C      -2.346439   -2.560724   -0.775674
O      -2.922530   -1.603796   -1.624484
C      -4.200104   -1.828030   -2.007333
N      -4.738632   -1.071860   -2.860739
H       0.287153    1.973252   -0.708254
H      -1.417077    1.884012   -0.219389
H      -0.136674    1.630664    0.982307
H      -0.727683   -0.211886   -1.411185
H       0.567300   -0.466478   -0.219359
H      -0.552933   -2.589518    0.539598
H      -2.826591   -3.604600    1.159279
H      -3.549810   -1.927924    0.976069
H      -2.049586   -3.476253   -1.282624
H      -4.658016   -2.688000   -1.502013
H      -5.698470   -1.367270   -3.027116
