19

C      -0.120632    1.502560    0.109469
C       1.413597    1.301459    0.057264
C       1.200004    0.072480    1.024700
C       0.100701   -0.036291   -0.071473
C      -0.897203   -0.948431   -0.754203
O      -1.848761   -0.183593   -1.509037
C      -0.707632   -0.696822   -2.207335
C       0.433810    0.327036   -2.452626
C       1.197537    0.278618   -1.111159
H      -0.539744    1.816178    1.069259
H      -0.588122    2.038169   -0.714689
H       2.185737    2.065890    0.154931
H       1.977100   -0.696810    1.021520
H       0.874434    0.315228    2.039602
H      -1.258179   -1.888517   -0.345385
H      -0.942927   -1.436926   -2.969880
H       1.058879    0.017324   -3.294599
H       0.003612    1.300443   -2.702817
H       1.982936   -0.484749   -1.163315
