12

O       0.032399    1.437337    0.093326
C       0.026780    0.030118    0.064704
C      -1.402915   -0.522328   -0.136084
O      -1.034067   -1.059907   -1.445766
C       0.242391   -0.579598   -1.362215
O       1.111019   -0.630638   -2.167003
C       0.831126   -0.578360    1.111001
C       1.527002   -1.068729    1.959137
H       0.951328    1.730424    0.091966
H      -1.715230   -1.316779    0.540892
H      -2.156803    0.260115   -0.229185
H       2.138757   -1.505275    2.710566
