20

C       0.011870    1.459949    0.035963
C      -0.039479   -0.036147    0.050210
C       0.399313   -1.046589   -1.005464
C       1.157639   -0.956791    0.289274
N       0.561328   -2.186450    0.897592
C      -0.489641   -1.650387    1.839562
C      -1.152866   -0.969531    0.622723
C      -2.596987   -0.550620    0.536754
C      -0.463430   -2.078730   -0.250960
H       0.932167    1.813554   -0.442090
H      -0.830520    1.893271   -0.515811
H      -0.008591    1.871374    1.052558
H       0.716530   -0.938502   -2.033963
H       2.164063   -0.617127    0.501417
H      -1.077758   -2.483807    2.238647
H      -0.109871   -1.033510    2.660975
H      -2.802511    0.307207    1.187962
H      -2.863610   -0.258856   -0.485699
H      -3.265789   -1.364160    0.838034
H      -0.931418   -2.988847   -0.623620
