18

C      -0.464900    1.187333   -0.143961
N       0.432633    0.058737    0.120793
C       0.799024   -0.720069   -0.964346
C       0.637061   -2.047340   -1.217037
N       0.077605   -2.993293   -0.348779
C       1.233883   -2.318804   -2.498390
C       1.720995   -1.121501   -2.935454
N       2.319083   -0.727448   -4.126214
O       1.495665   -0.137797   -2.047530
H      -0.034498    1.947617   -0.811695
H      -1.381732    0.811177   -0.607000
H      -0.729220    1.667545    0.803676
H       1.219942    0.352199    0.691025
H      -0.412708   -2.533596    0.410026
H      -0.547709   -3.635607   -0.819919
H       1.300928   -3.270079   -3.001874
H       2.775444   -1.492137   -4.604387
H       2.959633    0.045798   -3.997366
