17

O      -0.089384    1.357546    0.020465
C       0.001049   -0.037916    0.009511
C       0.734545   -0.754122    1.173846
C       0.489921   -2.167506    0.670230
C      -0.818690   -2.163141   -0.048335
C      -1.367999   -0.746087    0.016006
N       0.456104   -2.159232   -0.822267
C       0.661007   -0.742984   -1.198020
H       0.803022    1.718912    0.004236
H       1.797098   -0.491208    1.229459
H       0.269071   -0.556140    2.143995
H       0.910910   -3.046840    1.142776
H      -1.449290   -3.038045   -0.148521
H      -1.936594   -0.548296    0.929477
H      -1.978965   -0.470926   -0.848688
H       0.163105   -0.519690   -2.146155
H       1.731177   -0.528491   -1.296753
