21

C       0.002454    1.543147   -0.122122
C       1.307252    0.789602   -0.027975
C       2.114646    0.766200    1.261441
C       1.422497    0.001006    2.387215
C      -0.109282    0.190249    2.642231
C      -0.084771   -1.178903    3.372744
C       0.757502   -1.384447    2.087599
C      -0.360713   -0.599572    1.316781
C       0.000294    0.036885   -0.000859
H      -0.323261    2.122383    0.736134
H      -0.257201    1.983470   -1.078840
H       1.889265    0.743728   -0.942820
H       3.082969    0.286194    1.069779
H       2.346009    1.785302    1.599859
H       2.031810    0.014935    3.297726
H      -0.617973    1.098292    2.973238
H       0.452616   -1.212397    4.324766
H      -1.033776   -1.720255    3.427090
H       1.260902   -2.297754    1.763060
H      -1.330684   -1.106449    1.276190
H      -0.280321   -0.532847   -0.881974
