12

O      -0.072684    0.060133    0.003901
C      -0.037009    1.257757    0.009319
C       1.341438    1.965277   -0.001037
O       2.379452    1.375977   -0.015427
N       1.280814    3.389130    0.007914
N       0.109697    4.060675    0.024817
C       0.479235    5.326808    0.028515
C       1.895218    5.387365    0.013210
N       2.379895    4.159643    0.000325
H      -0.931199    1.900286    0.021352
H      -0.249975    6.121633    0.041412
H       2.550392    6.244407    0.011136
