19

C      -0.240783    1.541456   -0.032744
C       0.040436    0.049557    0.033646
O       0.738227   -0.370376   -1.167559
C       1.815913   -1.238271   -0.756952
C       1.307079   -1.861289    0.545131
C       0.950125   -0.482588    1.159748
C       2.315233    0.236923    1.103754
C       2.891926   -0.267524   -0.237146
O       3.927613    0.048979   -0.755253
H       0.676957    2.128503   -0.116184
H      -0.855788    1.760978   -0.910053
H      -0.789899    1.867212    0.857012
H      -0.921256   -0.484108    0.075470
H       2.110023   -1.874988   -1.589066
H       0.442775   -2.512111    0.393406
H       2.080356   -2.401023    1.099523
H       0.475111   -0.499240    2.141098
H       2.278807    1.327168    1.142478
H       2.970066   -0.094945    1.917368
