16

C      -0.051595    1.536976    0.003087
C      -0.018486    0.042253   -0.018419
C       0.028664   -0.792274   -1.133786
N      -0.002161   -0.529448   -2.501420
N       0.032990   -2.062484   -0.643881
C      -0.006123   -1.976232    0.737602
C       0.013527   -3.174807    1.560561
O      -0.028295   -3.212371    2.768820
N      -0.041634   -0.708831    1.115734
H       0.513978    1.966807   -0.832005
H      -1.073890    1.930569   -0.054045
H       0.388821    1.900573    0.934126
H      -0.019091    0.463458   -2.692561
H       0.754635   -0.958310   -3.022614
H       0.004074   -2.906605   -1.193145
H       0.070423   -4.113052    0.954574
