21

C       0.023194    1.585683    0.045596
C      -0.004295    0.056724   -0.029766
C      -1.422666   -0.520077    0.042212
C      -1.443946   -2.050421   -0.022553
C      -2.877456   -2.651652    0.036450
C      -3.633922   -2.286089   -1.244542
O      -4.510372   -1.467528   -1.305668
C      -2.847215   -4.103094    0.170233
C      -2.821707   -5.303483    0.232411
H       1.046712    1.968935   -0.009589
H      -0.545383    2.032404   -0.777357
H      -0.416911    1.943812    0.982813
H       0.473815   -0.273679   -0.961407
H       0.599719   -0.362931    0.785557
H      -1.903716   -0.191123    0.973342
H      -2.028717   -0.101219   -0.771095
H      -0.953354   -2.401682   -0.939586
H      -0.871156   -2.472493    0.810122
H      -3.424720   -2.201110    0.872499
H      -3.280053   -2.839540   -2.143127
H      -2.804374   -6.362574    0.309402
