23

C      -0.085619    1.729019   -0.385599
C      -0.276846    0.208206   -0.391311
C       0.861404   -0.539136   -1.087548
C       2.255284   -0.423149   -0.420848
C       2.940029   -1.700154   -0.844692
C       2.076589   -2.582638   -1.339703
C       0.648454   -2.066775   -1.312185
C      -0.161908   -2.779166   -0.219241
O      -0.024411   -2.202738   -2.569576
H       0.818638    2.019796    0.159542
H       0.003772    2.118637   -1.405844
H      -0.933450    2.232016    0.089892
H      -0.382596   -0.146583    0.642034
H      -1.216871   -0.033855   -0.902238
H       0.955996   -0.139103   -2.104665
H       2.799360    0.475675   -0.731340
H       2.173341   -0.367288    0.675602
H       4.006103   -1.862366   -0.724918
H       2.313760   -3.583749   -1.686676
H       0.275401   -2.622266    0.771269
H      -1.196882   -2.425686   -0.207421
H      -0.172491   -3.861109   -0.401728
H      -0.290964   -3.122954   -2.667869
