14

N      -0.138511   -1.196920   -0.163429
C      -0.061813   -0.047545   -0.077849
C       0.004140    1.421845    0.038456
C      -0.697242    1.922257    1.308755
C       0.125339    1.501420    2.529198
N       1.549935    1.780939    2.373987
C       2.009740    1.930262    1.211028
O       1.370263    1.846141    0.002571
H      -0.456496    1.847970   -0.857460
H      -0.749602    3.013932    1.245774
H      -1.719339    1.536220    1.348896
H      -0.228007    2.023984    3.423397
H       0.000975    0.429292    2.727110
H       3.056292    2.170524    1.038556
