22

C       0.798010    1.564820    0.386720
C      -0.082548    0.408726   -0.099538
C       0.490535   -0.280630   -1.317111
N       1.588413   -1.246129   -1.070359
C       0.302863   -1.718535   -1.595601
C      -0.511175   -2.795561   -0.866346
C      -0.329552   -3.695634   -2.125454
O      -1.400252   -4.476952   -2.586266
C       0.114594   -2.440208   -2.936727
H       1.798768    1.201252    0.639029
H       0.904623    2.335231   -0.385480
H       0.373812    2.041621    1.275602
H      -0.196922   -0.330871    0.700382
H      -1.089157    0.777451   -0.338110
H       0.597973    0.361813   -2.192844
H       2.275250   -1.196503   -1.819772
H      -0.116627   -3.161957    0.083077
H      -1.560291   -2.504151   -0.732803
H       0.504753   -4.389285   -1.992636
H      -2.167810   -3.903365   -2.685050
H      -0.717690   -2.027049   -3.519499
H       0.984502   -2.540543   -3.592683
