19

C      -0.097158    1.595117    0.020386
C       0.162518    0.103234    0.039930
O       1.309731   -0.346295   -0.760043
C       1.769164   -1.195712    0.304947
C       2.209980   -0.322166    1.443645
C       2.867015   -0.993708    2.624558
O       2.784525    0.924910    1.169570
C       0.726990   -0.604150    1.270247
O      -0.032297   -1.118007    2.298615
H       0.744648    2.153416    0.431927
H      -0.297600    1.935779   -1.000628
H      -0.983149    1.812439    0.626599
H      -0.724830   -0.438705   -0.323382
H       2.121276   -2.190373    0.053181
H       3.937887   -1.108122    2.434475
H       2.739291   -0.383404    3.523409
H       2.426931   -1.973809    2.819661
H       2.704394    1.045230    0.213193
H      -0.692079   -1.716079    1.927232
