12

C       0.039037    1.467205   -0.029570
C      -0.059870   -0.013196   -0.003446
N      -1.092429   -0.759757   -0.222673
C      -0.620418   -2.063544   -0.067753
C       0.702517   -2.021533    0.243625
O       1.074438   -0.719741    0.288210
C      -1.440096   -3.211412   -0.223286
N      -2.091202   -4.160058   -0.345612
H       0.768326    1.796668   -0.776204
H      -0.938553    1.881263   -0.275539
H       0.360461    1.854143    0.942441
H       1.454812   -2.763681    0.446266
