16

O       0.159854    1.439132   -0.137554
C       0.082894    0.059168   -0.035630
C       0.260617   -0.644786    1.401390
O       0.764264   -0.274432    2.413202
C      -0.674609   -1.800853    0.900100
N      -2.236332   -2.069839    1.006837
C      -2.323090   -0.533413    1.026687
C      -1.236402   -0.760631   -0.056420
C      -2.197013   -1.908253   -0.533349
H      -0.256329    1.829293    0.639265
H       0.807587   -0.370397   -0.736707
H      -0.125810   -2.661894    0.509008
H      -3.290082   -0.146873    0.696485
H      -2.035329   -0.101450    1.989646
H      -1.752705   -2.757457   -1.056754
H      -3.168004   -1.629229   -0.949633
