15

C      -0.121706    1.447747   -0.160221
C       1.287411    0.952612    0.075545
C       0.138675   -0.017954    0.054101
N      -0.293956   -0.676718    1.256598
C      -0.345813   -0.210550    2.541519
N      -0.804111   -1.128835    3.355541
N      -1.070282   -2.249080    2.597958
C      -0.760399   -1.957645    1.360376
H      -0.609838    1.989926    0.641693
H      -0.403448    1.770785   -1.155831
H       1.981535    0.932774   -0.756783
H       1.744931    1.162440    1.035726
H       0.049061   -0.679186   -0.799096
H      -0.044722    0.784659    2.827474
H      -0.849135   -2.616848    0.510526
