18

O       0.033692   -0.013758   -0.342876
C       0.013130    1.167083   -0.131851
N      -1.006012    2.068341    0.062481
C      -0.153597    3.268624    0.084554
C      -0.248565    4.152148    1.321528
C       0.169020    3.419780    2.607217
C       1.489366    2.715331    2.437602
C       1.904529    2.230771    1.265489
C       1.079558    2.305108    0.019987
H      -1.999554    1.962784   -0.088546
H      -0.261514    3.870553   -0.825257
H       0.415599    5.010906    1.163609
H      -1.264755    4.552363    1.418850
H       0.217435    4.130078    3.439349
H      -0.606713    2.689688    2.878398
H       2.114310    2.596110    3.318423
H       2.856858    1.713852    1.191370
H       1.691263    2.407321   -0.879838
