18

O       0.000394   -0.014575    0.059336
C       0.007041    1.190105   -0.024340
N      -1.092633    2.017787   -0.095191
C      -0.738101    3.437125   -0.057941
C       0.647002    3.382680   -0.736536
C       1.222780    2.153047   -0.014271
C       1.448324    2.515425    1.442674
C       0.612086    3.345468    2.071264
C      -0.585196    3.961887    1.385430
H      -2.001334    1.668319    0.168388
H      -1.469557    4.029150   -0.614258
H       0.540786    3.207916   -1.810624
H       1.234393    4.288120   -0.570959
H       2.096885    1.697740   -0.477084
H       2.277907    2.052140    1.966483
H       0.766707    3.592421    3.118267
H      -0.496251    5.057558    1.373212
H      -1.499108    3.745494    1.956508
