16

N       0.063517   -1.176860   -0.142626
C       0.027736   -0.031760    0.009637
C       0.013902    1.418546    0.196999
C       1.405359    2.043825    0.048878
C       2.081476    2.067572   -1.349418
C       2.595357    3.497203   -1.026105
C       1.515031    3.593018    0.085717
H      -0.674596    1.857012   -0.535618
H      -0.399357    1.637049    1.189265
H       2.080175    1.597553    0.785947
H       2.815270    1.290420   -1.571065
H       1.335808    2.079584   -2.151275
H       3.605535    3.480187   -0.608200
H       2.563478    4.239575   -1.826004
H       0.598752    4.065567   -0.284339
H       1.787685    4.060493    1.034709
