19

C      -0.143054    1.558680    0.020425
C       0.032983    0.041458    0.003131
C       0.876541   -0.510365   -1.196072
C       1.990391   -1.346154   -0.492727
C       1.229889   -1.927083    0.716129
C       0.822188   -0.530320    1.202980
O       2.101829    0.159151    1.264745
C       2.860271   -0.319621    0.224652
O       3.961964    0.077422   -0.014206
H       0.824422    2.066122    0.063955
H      -0.666309    1.897183   -0.879343
H      -0.729546    1.879215    0.888085
H      -0.956058   -0.430839    0.004669
H       0.281436   -1.153891   -1.849284
H       1.296833    0.288989   -1.812177
H       2.559024   -2.014493   -1.134859
H       0.378729   -2.555135    0.441781
H       1.867966   -2.456806    1.427644
H       0.348320   -0.438413    2.179476
