16

N      -0.136170    1.509377    0.455016
C      -0.026447    0.109664    0.054823
C       0.720375   -0.693949    1.147048
O      -0.250218   -1.415675    1.904194
C      -1.536521   -0.916593    1.596662
C      -1.430011   -0.558179    0.099507
C      -2.503635    0.276389   -0.418326
N      -3.349004    0.944167   -0.837830
H       0.787018    1.920223    0.547872
H      -0.631969    2.046316   -0.250666
H       0.435880   -0.042645   -0.931247
H       1.421036   -1.419461    0.720124
H       1.278880   -0.006826    1.796368
H      -2.268925   -1.699902    1.803559
H      -1.782352   -0.018858    2.178767
H      -1.399793   -1.486667   -0.480877
