23

C       0.089823    1.514993    0.231578
C       0.010681    0.024191   -0.128527
C      -1.397723   -0.504951   -0.093832
C      -2.083852   -0.943347    1.172437
C      -1.940409   -1.936070    0.051368
C      -2.994752   -1.690703   -1.035889
C      -4.468865   -1.902017   -0.713571
C      -2.451693   -0.213119   -1.159249
O      -3.313455    0.857061   -0.820133
H       1.116096    1.887974    0.154602
H      -0.541402    2.112541   -0.433596
H      -0.259732    1.687604    1.254463
H       0.437077   -0.133790   -1.128774
H       0.632963   -0.557030    0.563828
H      -1.413853   -1.102794    2.012308
H      -3.051608   -0.537939    1.449340
H      -1.373465   -2.852444    0.172355
H      -2.737510   -2.243266   -1.945895
H      -4.780846   -1.326741    0.161550
H      -5.103310   -1.595247   -1.553802
H      -4.675795   -2.959357   -0.516062
H      -1.991301   -0.041344   -2.142341
H      -3.954847    0.964454   -1.529993
