14

C      -0.005886    1.512112    0.033583
C      -0.036522    0.012998   -0.009210
C      -1.136031   -0.733665    0.197357
C      -1.076286   -2.180985    0.137295
N      -2.087059   -2.925743    0.325390
O       0.166936   -2.744622   -0.142407
N       1.312974   -1.988688   -0.358457
C       1.189720   -0.711811   -0.290686
H       0.694496    1.867405    0.798485
H       0.333621    1.923977   -0.923984
H      -0.993251    1.923029    0.253960
H      -2.108337   -0.307915    0.415655
H      -1.831764   -3.910718    0.239464
H       2.117542   -0.174087   -0.468049
