20

C      -0.282576    1.599764    0.059256
N      -0.150759    0.160820    0.116999
C      -0.991836   -0.606452    1.068104
C      -1.705989   -1.804175    0.404566
C      -0.386595   -2.631525    0.533763
C       0.248473   -1.493557    1.394493
C       1.093563   -0.415469    0.653032
C       2.098569   -0.878162   -0.379744
O       3.264189   -1.075591   -0.147887
H       0.445310    2.011069   -0.648459
H      -1.282250    1.865579   -0.299743
H      -0.124555    2.095602    1.035206
H      -1.521340   -0.000353    1.811055
H      -2.513743   -2.209134    1.021286
H      -2.081077   -1.622009   -0.604724
H      -0.496009   -3.576449    1.069757
H       0.123613   -2.837753   -0.408846
H       0.570256   -1.755164    2.399960
H       1.612514    0.226174    1.383132
H       1.661999   -1.042997   -1.391323
