18

O      -0.085263    0.547375   -0.585974
C       0.076491    1.647354   -0.116443
N       1.222579    2.071021    0.530505
C       2.561300    1.713541    0.127989
C       2.120331    3.150975    0.139788
C       1.929908    3.908785   -1.155278
C       0.952364    5.097542   -1.018576
C       0.834243    5.868842   -2.249073
C       0.757756    6.485240   -3.277778
H      -0.720640    2.415121   -0.086604
H       3.214623    1.341291    0.911996
H       2.666624    1.221746   -0.836139
H       2.449708    3.763327    0.979434
H       2.903538    4.290866   -1.482684
H       1.576280    3.229478   -1.938443
H      -0.037023    4.729621   -0.718942
H       1.290190    5.753135   -0.205124
H       0.679509    7.038281   -4.180839
