16

C       0.479997    1.440562    0.111619
O       1.111393    0.230105   -0.325016
C      -0.274351    0.179367    0.025474
C      -0.602565   -0.615661    1.230637
N       0.375749   -0.866469    2.306402
C      -0.253111   -2.009267    1.597711
C      -1.695064   -2.213224    2.187575
O      -1.933516   -1.229218    3.194145
C      -2.050273   -0.841814    1.828843
H       0.796058    1.802035    1.087939
H       0.353277    2.199349   -0.658277
H      -0.946613    0.046784   -0.823773
H       1.288026   -0.740583    1.860722
H       0.329979   -2.742102    1.056383
H      -2.274761   -3.127351    2.213530
H      -2.977416   -0.390903    1.495311
