21

C      -1.695438    1.389271   -1.165544
C      -1.745083   -0.127438   -1.141706
O      -2.163947   -0.767234   -2.080646
C      -1.256023   -0.799133    0.138223
C      -1.083836   -2.313124    0.033365
C       0.068565   -2.702855   -0.892268
C      -1.066641   -3.074686    1.385398
O      -2.178911   -3.897957    0.993886
C      -2.381641   -3.126108   -0.210088
H      -2.201120    1.764511   -2.055904
H      -2.155341    1.811001   -0.265396
H      -0.651246    1.723666   -1.173936
H      -0.322650   -0.316665    0.459873
H      -1.991093   -0.551175    0.918441
H       1.017247   -2.283423   -0.536258
H       0.179784   -3.791045   -0.930835
H      -0.109445   -2.343792   -1.909013
H      -0.165824   -3.665259    1.594951
H      -1.299618   -2.459837    2.267260
H      -3.309460   -2.542011   -0.169571
H      -2.397364   -3.751983   -1.108283
