19

C       0.007172    1.593100   -0.038718
C      -0.046163    0.066046    0.020667
O       0.436642   -0.512016   -1.188655
C       0.699576   -0.526273    1.237146
C       0.211095    0.013115    2.581622
C       0.921229   -2.057029    1.175847
O       2.371197   -1.852286    1.059038
C       2.227880   -0.495931    1.064095
O       3.077372    0.330616    0.931478
H       1.044669    1.943782   -0.013499
H      -0.459122    1.933094   -0.967122
H      -0.525587    2.052343    0.797926
H      -1.092377   -0.260253    0.085062
H       1.269793   -0.081023   -1.413672
H      -0.873149   -0.111581    2.677933
H       0.686608   -0.515832    3.412857
H       0.444180    1.075132    2.688565
H       0.685681   -2.617300    2.082621
H       0.541097   -2.551833    0.282722
