17

C      -0.151955    1.595675    0.053917
C       0.016683    0.069545   -0.023758
C       0.793940   -0.447666   -1.201571
C       1.829387   -1.233418   -0.855293
C       1.933187   -1.391338    0.647801
C       0.810712   -0.488390    1.175129
O       0.593878   -0.234526    2.330305
C       2.736467   -1.865142   -1.738627
C       3.532938   -2.420601   -2.452269
H       0.816777    2.100603   -0.010526
H      -0.781771    1.961711   -0.761950
H      -0.617222    1.865684    1.005350
H      -0.986691   -0.383592    0.009419
H       0.537142   -0.204965   -2.226044
H       1.774488   -2.425542    0.978107
H       2.902969   -1.082935    1.054508
H       4.227839   -2.904390   -3.093091
