15

N      -0.064059    1.274533   -0.230844
C      -0.074186    0.018947   -0.278584
O      -1.082597   -0.665040    0.324357
C      -1.070976   -2.060018    0.231069
C      -1.914693   -2.762692    1.304069
O      -2.642288   -3.505738    0.294790
C      -2.054212   -2.749102   -0.776241
C      -3.000876   -1.860055   -1.452811
N      -3.739827   -1.167630   -2.008590
H       0.753487    1.641361   -0.713156
H       0.667243   -0.634584   -0.758027
H      -0.052099   -2.446492    0.130344
H      -1.391371   -3.423407    2.000366
H      -2.560716   -2.067700    1.850832
H      -1.584650   -3.401860   -1.521066
