20

C       0.047426    1.506863    0.228715
C      -0.124651    0.041033   -0.161017
C       0.786689   -0.402655   -1.297321
O       1.469242    0.384233   -1.915914
C       0.801412   -1.895471   -1.593489
C       1.489763   -2.251287   -2.906974
C       2.037543   -3.676247   -2.901008
N       2.255016   -4.208258   -4.140310
O       2.270880   -4.295050   -1.879777
H       1.063834    1.700847    0.581786
H      -0.127163    2.159712   -0.629794
H      -0.651617    1.780905    1.023737
H       0.043016   -0.627230    0.694166
H      -1.157682   -0.162471   -0.478521
H       1.335652   -2.397939   -0.775656
H      -0.221352   -2.287842   -1.548261
H       0.821760   -2.103711   -3.762435
H       2.329183   -1.561263   -3.056961
H       2.185504   -3.650288   -4.973579
H       2.740368   -5.089118   -4.194499
