19

C      -0.038774    1.393799    0.011251
N      -0.006877   -0.048571    0.019162
C      -1.194661   -0.869730    0.086907
C      -0.620399   -2.286435    0.031063
C      -1.288420   -3.355647    0.856571
C       0.202099   -2.620376   -1.156039
N       0.852671   -2.175812    0.104244
C       1.166227   -0.767110    0.048813
O       2.282921   -0.311652    0.034955
H       0.994263    1.744376   -0.016529
H      -0.574176    1.775449   -0.867083
H      -0.528775    1.788088    0.911025
H      -1.740960   -0.711447    1.029135
H      -1.889414   -0.652551   -0.736231
H      -2.307364   -3.541537    0.498737
H      -0.728463   -4.292125    0.799947
H      -1.346838   -3.056585    1.908386
H       0.383512   -3.660153   -1.410662
H       0.218031   -1.930686   -1.996539
