15

C       0.024078    1.534487   -0.188536
C      -0.015267    0.017479    0.065808
C      -1.403650   -0.546072    0.064207
C      -2.162828   -0.999911    1.095138
O      -3.369497   -1.410888    0.664101
N      -3.453351   -1.240808   -0.695000
C      -2.288964   -0.727983   -1.047705
C      -2.017734   -0.423169   -2.412722
N      -1.741440   -0.156080   -3.503531
H       1.056372    1.895171   -0.175581
H      -0.406596    1.782580   -1.162816
H      -0.538213    2.075421    0.578344
H       0.579834   -0.493349   -0.700010
H       0.456691   -0.210195    1.027094
H      -1.986259   -1.094209    2.155333
