14

N      -0.111474   -1.096071   -0.147397
C      -0.037157    0.055080   -0.068616
C       0.053605    1.503798    0.027089
C      -0.045783    1.997617    1.482463
C       1.423567    1.963270    1.661103
C       1.527136    2.031354    0.088640
C       1.300403    3.539556    0.269744
N       0.721825    3.276927    1.630044
H      -0.600288    1.964769   -0.721181
H      -0.842047    1.812568    2.189503
H       2.069799    1.623404    2.457844
H       2.285503    1.603148   -0.561747
H       2.228088    4.102034    0.395588
H       0.640036    4.059324   -0.433957
