16

N      -0.067520   -1.148268    0.032084
C      -0.040430    0.009636    0.008771
C       0.002820    1.426031   -0.009875
C      -0.737788    2.501711    0.824191
C       0.576675    3.240449    1.070715
C       1.243685    2.376229   -0.047820
C       1.087732    3.061287   -1.401624
O      -0.329772    3.266033   -1.536653
C      -0.965941    2.374478   -0.662081
H      -1.535028    2.334861    1.539038
H       0.573757    4.323686    0.915768
H       0.986720    3.011190    2.056013
H       2.225392    1.953882    0.155197
H       1.579457    4.037567   -1.448405
H       1.456206    2.432155   -2.224281
H      -1.926558    2.019540   -1.014603
