22

C       0.086085    1.577074   -0.244983
C       0.112560    0.063061   -0.067691
O      -1.195744   -0.457973   -0.253759
C       1.169273   -0.736147   -0.843815
C       2.543918   -0.436614   -0.404984
N       1.742127   -1.369990    0.405817
C       0.745087   -0.566349    1.236345
C       1.369568    0.369760    2.266563
C      -0.167596   -1.570990    1.933890
H       1.066767    2.038554   -0.111972
H      -0.256582    1.829699   -1.256865
H      -0.609159    2.028779    0.469446
H      -1.524808   -0.125580   -1.095714
H       0.941962   -1.329208   -1.725529
H       3.355540   -0.936196   -0.926474
H       2.806115    0.544900   -0.021987
H       2.023301    1.129245    1.832152
H       0.587893    0.891228    2.828713
H       1.962302   -0.213605    2.978829
H       0.408046   -2.104647    2.696673
H      -1.009558   -1.066961    2.416853
H      -0.564565   -2.298519    1.226588
