18

C      -0.043317    1.371052    0.055904
O       0.000185   -0.036299    0.006085
C       0.655625   -0.524126   -1.139820
C       0.628280   -2.055302   -1.061637
C       1.280749   -2.683303   -2.200089
C       1.828612   -3.171984   -3.156523
C       2.500804   -3.699083   -4.335117
N       2.552212   -5.062951   -4.375870
O       2.976148   -2.986604   -5.198495
H       0.966525    1.809771    0.074791
H      -0.584638    1.792982   -0.805238
H      -0.566972    1.648618    0.973618
H       0.153583   -0.184385   -2.059819
H       1.697033   -0.167268   -1.184278
H       1.112163   -2.368932   -0.128715
H      -0.415363   -2.385788   -0.994871
H       2.116892   -5.628984   -3.669244
H       2.975345   -5.501029   -5.177396
