15

C       0.030959    1.405207   -0.081088
O      -0.007850   -0.000155    0.008418
C       0.613075   -0.623396   -1.074347
C       0.530977   -2.131951   -0.903888
O       0.019247   -2.720571    0.007331
O       1.134303   -2.724293   -1.956177
C       1.134538   -4.157324   -1.931948
H       1.064565    1.785766   -0.100174
H      -0.486370    1.772507   -0.981641
H      -0.475039    1.798103    0.803265
H       0.140367   -0.357865   -2.035585
H       1.676716   -0.342865   -1.163177
H       1.654001   -4.469916   -2.837733
H       1.654691   -4.527806   -1.044983
H       0.111869   -4.542893   -1.924705
