13

N       0.138086    1.419644    0.166289
C       0.022630    0.049556    0.033381
C      -1.067630   -0.757567   -0.000152
O      -0.630946   -2.093962   -0.026748
C       0.735657   -2.110194   -0.021772
O       1.420797   -3.093325   -0.026790
N       1.131672   -0.776331   -0.011342
C      -2.428410   -0.450302   -0.002401
C      -3.599721   -0.158455   -0.008485
H       0.764876    1.848958   -0.505011
H      -0.766103    1.874966    0.145857
H       2.086403   -0.504581    0.150698
H      -4.632199    0.089046   -0.007226
