22

C      -0.307608    1.712455   -0.503780
C       0.010535    0.297281   -0.006461
C      -1.252364   -0.496446    0.267794
C      -1.943117   -1.261158   -0.836131
C      -1.338994   -2.000969    0.349004
C      -0.224188   -2.969324    0.157770
C      -0.577954   -4.373948   -0.263636
N       0.974984   -2.582076    0.376939
O       1.898923   -3.617761    0.142262
H       0.608748    2.280459   -0.692799
H      -0.884554    1.684447   -1.434541
H      -0.897915    2.270061    0.232446
H       0.627313   -0.228227   -0.739790
H       0.614393    0.350047    0.906669
H      -1.925777    0.006171    0.960384
H      -3.022879   -1.224601   -0.931501
H      -1.411213   -1.336654   -1.779810
H      -2.079386   -2.377674    1.053533
H      -0.163051   -4.590973   -1.253839
H      -0.137024   -5.102448    0.423279
H      -1.659860   -4.513050   -0.299346
H       2.734426   -3.192299    0.360620
