16

O      -0.246908    1.281700   -0.030666
C      -0.063229   -0.080822    0.098261
C      -0.409154   -0.794321    1.375515
C      -1.548428   -0.044443    2.055376
N      -2.340210   -0.061404    0.737446
H      -3.284424   -0.432468    0.806458
H      -2.318406    0.851016    0.260990
C      -1.274702   -0.960987    0.129637
C       1.133362   -0.597961   -0.759322
O       1.648575    0.361293   -1.378696
O       1.353411   -1.809824   -0.709596
H       0.494532    1.442334   -0.692903
H       0.235610   -1.527888    1.836359
H      -2.105344   -0.617272    2.797587
H      -1.362506    0.975339    2.395414
H      -1.555048   -1.783096   -0.513256
