19

C       0.055606    1.448065    0.039185
C       0.109592   -0.066843    0.017129
C      -1.140685   -0.710719   -0.549073
C       1.409137   -0.744459   -0.138943
C       0.810174   -0.796503    1.270366
C       1.418205    0.042749    2.329410
O       2.184615    0.962205    2.152676
C       0.243113   -2.078075    1.751658
O      -0.030234   -3.035191    1.063740
H       0.953405    1.892128    0.467129
H      -0.048459    1.805258   -0.991822
H      -0.816288    1.803144    0.598620
H      -1.259576   -0.380540   -1.587456
H      -1.091985   -1.798781   -0.538513
H      -2.032139   -0.390793    0.000659
H       1.433626   -1.706978   -0.639501
H       2.304438   -0.135532   -0.211352
H       1.119126   -0.246748    3.362001
H       0.083477   -2.115704    2.852839
