17

N       0.018119    1.403200   -0.113475
C      -0.014174    0.009256   -0.050422
C      -1.214285   -0.712621   -0.008780
C      -1.180883   -2.102583    0.001345
C       0.021429   -2.800439   -0.025082
C       1.231341   -2.095158   -0.066689
N       2.468542   -2.736544   -0.145283
C       1.193705   -0.696472   -0.080517
O       2.395206    0.014599   -0.056458
H       0.890488    1.786954    0.224158
H      -0.781822    1.855633    0.304812
H      -2.159505   -0.180038    0.009995
H      -2.114313   -2.655324    0.036655
H       0.033623   -3.885453   -0.018828
H       2.482716   -3.660817    0.261039
H       3.226606   -2.160805    0.195579
H       2.673352    0.182040   -0.965089
