19

C      -0.509270    1.412973    0.020442
C      -0.029819   -0.055340   -0.026424
C       0.659774   -0.340755   -1.339604
C       1.984745   -0.324450   -1.493201
C       2.887083   -0.055851   -0.346112
O       2.647230    1.158804    0.412765
C       2.324392   -0.100216    1.010259
C       0.860288   -0.444820    1.187870
O       0.355175    0.057015    2.419465
H       0.342231    2.096714    0.004473
H      -1.139740    1.633107   -0.846399
H      -1.107658    1.592263    0.918178
H      -0.927116   -0.683763    0.033450
H       0.018540   -0.513076   -2.200682
H       2.439808   -0.502145   -2.462564
H       3.944586   -0.271701   -0.481814
H       2.960905   -0.379224    1.850788
H       0.815863   -1.536070    1.298194
H       0.505559    1.008647    2.427967
