15

N      -0.104113    1.294106    0.012455
C      -0.019727    0.024123    0.004504
N       1.090904   -0.824120   -0.007533
C       0.644731   -2.140660   -0.012306
N      -0.626070   -2.287295   -0.005088
C      -1.159031   -0.947433    0.006093
C      -2.438020   -0.642178    0.762509
C      -2.447498   -0.633494   -0.730423
H       0.810889    1.744627    0.009248
H       2.051232   -0.525452   -0.011774
H       1.360142   -2.955290   -0.021591
H      -2.892928   -1.479971    1.277111
H      -2.455064    0.310583    1.279755
H      -2.471035    0.325219   -1.236292
H      -2.908968   -1.465275   -1.248920
