21

O      -0.060055    1.416356    0.047410
C      -0.004395    0.020801    0.011673
C       0.881302   -0.699430    1.035526
C       0.543891   -2.169696    0.653548
C      -0.450368   -1.908237   -0.488277
C      -1.359135   -0.743467    0.021673
C      -2.101312   -0.237635   -1.219824
C      -0.922478   -0.245358   -2.243172
C       0.193869   -0.768067   -1.335238
H       0.840810    1.756780    0.048629
H       1.942370   -0.456786    0.904649
H       0.603784   -0.442391    2.062172
H       1.421227   -2.731674    0.319106
H       0.090341   -2.723923    1.480669
H      -0.898406   -2.771127   -0.983279
H      -1.923379   -0.844666    0.951628
H      -2.919210   -0.903741   -1.510507
H      -2.515252    0.762388   -1.069029
H      -1.106060   -0.900177   -3.100109
H      -0.700796    0.755924   -2.622647
H       1.191296   -0.894759   -1.764552
