18

N      -0.089033    1.469223    0.188657
C      -0.063604    0.037333   -0.015606
C      -1.449349   -0.572988   -0.289957
C      -1.067522   -1.989896   -0.771610
N      -0.485367   -1.304098   -2.000503
C      -1.619278   -0.309923   -1.808740
C       0.636503   -0.567975   -1.337047
C       1.204024    0.461946   -2.198916
N       1.646647    1.316538   -2.839456
H       0.839240    1.820046    0.401637
H      -0.390817    1.960963   -0.646829
H       0.395275   -0.413024    0.869426
H      -2.220165   -0.368137    0.452615
H      -0.354267   -2.580564   -0.188076
H      -1.916406   -2.608332   -1.068058
H      -2.538045   -0.723908   -2.227440
H      -1.440591    0.685540   -2.223582
H       1.425522   -1.282622   -1.086429
