15

N      -0.084642    1.438746   -0.137458
C      -0.071901    0.019666   -0.019187
C      -0.469849   -0.818452   -1.211956
C      -1.328483   -0.835658    0.030152
C      -1.025707   -1.936011    0.976582
N      -1.827498   -2.787153    1.435689
O       0.327544   -1.878383    1.320804
C       0.893664   -0.684108    0.895144
O       1.968164   -0.324937    1.267736
H      -0.121786    1.876258    0.778497
H       0.771884    1.759355   -0.579670
H      -0.865474   -0.246337   -2.042729
H       0.108470   -1.696429   -1.475843
H      -2.325107   -0.419579    0.005792
H      -1.357881   -3.421766    2.083558
