18

O       0.088395    1.476811    0.088742
C       0.005389    0.064687   -0.023099
C       0.781346   -0.600189    1.104745
O       0.129165   -0.336775    2.361424
C      -1.118098   -0.905557    2.523779
N      -1.525467   -1.289413    3.657649
C      -1.971119   -0.995521    1.309404
C      -2.508180    0.277878    0.679705
C      -1.429818   -0.488359   -0.017417
H       0.003096    1.695123    1.024416
H       0.475440   -0.183451   -0.979887
H       0.866889   -1.682262    0.945544
H       1.781403   -0.171304    1.201388
H      -0.791181   -1.152360    4.355624
H      -2.637599   -1.848743    1.316270
H      -3.514750    0.239140    0.280499
H      -2.242628    1.228167    1.127577
H      -1.712463   -1.051367   -0.900262
