18

O       0.045149    1.409429   -0.045802
C       0.060568   -0.003815   -0.013656
C      -1.343815   -0.581843    0.095142
O      -2.060654   -0.092678   -1.067609
C      -3.154797   -0.793101   -1.452830
N      -3.609752   -1.882872   -1.000463
C      -2.878228   -2.532113    0.089901
C      -1.407315   -2.111773    0.144827
O      -0.649875   -2.704638   -0.902434
H      -0.505024    1.662412   -0.795287
H       0.553457   -0.436109   -0.894109
H       0.635267   -0.295748    0.871510
H      -1.838569   -0.164504    0.981955
H      -3.647013   -0.284101   -2.280022
H      -3.379332   -2.307233    1.039790
H      -2.940210   -3.616103   -0.051613
H      -0.943936   -2.453078    1.076864
H      -1.165355   -2.644679   -1.714781
