18

C      -0.194222    1.367320    0.074658
N       0.005342   -0.079637    0.007319
C       0.741116   -0.528223   -1.172885
C       1.239101   -1.954525   -1.078000
C       0.191999   -3.034504   -0.847354
C       0.620154   -2.682078   -2.237344
O      -0.222527   -1.801047   -2.955453
C      -0.207513   -0.555230   -2.396627
O      -0.871538    0.340203   -2.828258
H       0.747412    1.944231    0.043413
H      -0.811575    1.686428   -0.766701
H      -0.718516    1.611715    1.002558
H       0.509212   -0.394511    0.829083
H       1.581062    0.144262   -1.428168
H       2.265313   -2.136969   -0.784677
H       0.540039   -3.978107   -0.442325
H      -0.796023   -2.725543   -0.525512
H       1.147265   -3.369777   -2.885406
