18

O      -0.073356    1.439108   -0.151089
C      -0.002878    0.045810   -0.090161
C       0.439679   -0.628140    1.269954
C      -0.935215   -1.307958    1.328106
C      -1.283438   -2.640694    1.931522
C      -1.350672   -2.584133    3.448651
O      -2.284627   -2.971048    4.100493
N      -1.916410   -0.188089    1.303095
C      -1.341339   -0.701150    0.030320
H      -0.741001    1.691744    0.501990
H       0.607219   -0.288817   -0.931613
H       1.265882   -1.331065    1.135449
H       0.667582    0.063558    2.084335
H      -2.243013   -3.014550    1.559662
H      -0.506234   -3.370515    1.661063
H      -0.449692   -2.146224    3.935292
H      -2.850941   -0.584458    1.398551
H      -1.987964   -1.077302   -0.753951
