17

C      -0.292483   -1.213142    0.474784
C      -0.178190   -0.028704    0.300570
C      -0.050631    1.414013    0.054712
C       1.437340    1.766921   -0.203720
C       1.668811    3.207613   -0.272207
N       1.876989    4.343366   -0.303195
N      -0.852416    1.954212   -1.045861
C      -1.119038    1.124078   -2.218460
C      -2.205396    1.455001   -1.253569
H      -0.393508   -2.256800    0.647613
H      -0.371796    1.947034    0.957987
H       2.057148    1.344017    0.592743
H       1.756277    1.304401   -1.143388
H      -1.047744    1.639600   -3.171176
H      -0.763768    0.096205   -2.214775
H      -2.554878    0.642492   -0.620507
H      -2.945805    2.213815   -1.488061
