17

C      -0.094960    1.599384   -0.019663
C       0.101633    0.079063    0.023315
C       0.774059   -0.497307   -1.228418
N       2.127348    0.004777   -1.375169
C       0.638561   -2.029875   -1.390932
O      -0.278516   -1.850616   -2.516996
C      -0.154141   -0.482677   -2.473008
O      -0.633429    0.314345   -3.216144
H       0.860152    2.134466    0.000254
H      -0.638579    1.901286   -0.919475
H      -0.665025    1.933755    0.851739
H       0.713971   -0.200840    0.888533
H      -0.872454   -0.408745    0.145438
H       2.536697   -0.310081   -2.250426
H       2.121828    1.019294   -1.412653
H       1.549138   -2.543615   -1.707537
H       0.154541   -2.569768   -0.574731
