19

O      -0.429873    1.453143    0.512253
C      -0.070586    0.156793    0.093910
C       0.480325   -0.812365    1.183655
C      -0.773168   -1.728069    1.005059
O      -0.522202   -3.034040    0.538131
C      -1.838472   -1.637997    2.111936
C      -2.595181   -0.345062    1.767353
O      -2.556506   -0.254249    0.341803
C      -1.323409   -0.767536   -0.091560
H       0.380382    1.941758    0.689181
H       0.558191    0.188488   -0.805977
H       1.413195   -1.313385    0.914319
H       0.581262   -0.352579    2.171283
H      -0.149053   -3.546024    1.263701
H      -2.498964   -2.504687    2.011674
H      -1.418839   -1.626606    3.122533
H      -3.645039   -0.362762    2.070401
H      -2.112220    0.533640    2.213549
H      -1.442710   -1.182551   -1.093941
