22

C      -0.109018    1.516860   -0.117138
C       0.068727    0.011433    0.029115
O       0.744729   -0.422359   -1.149727
C       0.857925   -1.832436   -1.250027
C       1.655674   -2.416139   -0.084119
C       1.013397   -1.987717    1.241890
C       0.817860   -0.480550    1.270877
C       1.817547    0.376634    1.955619
N       0.524559    0.068123    2.603566
H       0.857259    2.011217   -0.245703
H      -0.710095    1.721136   -1.006400
H      -0.623770    1.955533    0.742721
H      -0.931823   -0.460928    0.053311
H      -0.147143   -2.289289   -1.281853
H       1.345366   -2.028309   -2.209616
H       1.695114   -3.508228   -0.166757
H       2.685775   -2.044198   -0.138191
H       0.031833   -2.470630    1.348744
H       1.612072   -2.300447    2.102304
H       2.683005   -0.081338    2.427750
H       1.987637    1.385544    1.593145
H      -0.090392    0.875316    2.531755
