15

O       0.104322    1.354639    0.093657
C       0.118715    0.011449    0.079885
N       0.309229   -0.667444   -1.037051
O       0.259727   -2.030141   -0.682021
C       0.076163   -2.080572    0.643574
C      -0.031575   -0.853226    1.192675
N      -0.380161   -0.886837    2.557979
C      -0.116222   -2.311626    2.948836
C      -0.188337   -3.165589    1.634203
H       0.240013    1.655112   -0.815285
H       0.139171   -0.236695    3.136101
H       0.887856   -2.411653    3.381401
H      -0.843623   -2.638886    3.694949
H      -1.183309   -3.605906    1.490615
H       0.537502   -3.983176    1.636973
