19

O      -0.070759    1.356096   -0.021195
C      -0.005763   -0.052114   -0.048569
C      -1.365487   -0.621806   -0.473026
C      -1.876560   -1.256032    0.840106
O      -0.716427   -1.704898    1.548234
C       0.303790   -0.757625    1.307110
C       1.635415   -1.282617    0.745966
C       1.386416   -2.113581   -0.474637
C       1.321665   -0.618377   -0.606813
H       0.769056    1.685843    0.318243
H      -2.022059    0.168760   -0.841246
H      -1.257451   -1.377842   -1.254211
H      -2.423044   -0.509345    1.436406
H      -2.527548   -2.121748    0.692435
H       0.418826   -0.053699    2.142611
H       2.568285   -1.321406    1.293924
H       2.268031   -2.574286   -0.908280
H       0.489663   -2.721783   -0.537619
H       1.975705   -0.067124   -1.273166
