17

N      -0.077013    1.532799   -0.040032
C      -0.011153    0.086535   -0.026219
C       0.996795   -0.530328   -1.022722
C       2.343493   -0.013620   -0.797888
N       3.390574    0.429659   -0.587995
C      -0.092425   -0.616760    1.369661
C      -1.550564   -0.131355    1.534926
C      -1.360466   -0.692578    0.107208
O      -0.608266   -1.829021    0.687651
H       0.839368    1.925126    0.162140
H      -0.333831    1.867230   -0.965070
H       0.994788   -1.618087   -0.923421
H       0.698148   -0.284771   -2.049404
H       0.693059   -0.754215    2.113230
H      -2.157192   -0.765806    2.180184
H      -1.728570    0.934752    1.651319
H      -2.098916   -0.920877   -0.663172
