15

O      -0.481137    1.281585   -0.177131
C      -0.171017   -0.047914    0.027912
C      -0.373063   -0.626643    1.414531
C      -1.338836   -1.006754    0.344479
O      -2.612646   -0.438790    0.434210
C      -3.144042    0.057820   -0.718070
O      -4.230797    0.541907   -0.749812
C       0.907055   -0.559978   -0.843694
O       1.427259    0.146578   -1.677684
H       0.075656    1.555163   -0.925065
H       0.321625   -1.373834    1.782013
H      -0.731314    0.089498    2.145061
H      -1.320817   -2.015775   -0.059228
H      -2.468480   -0.057451   -1.583030
H       1.198719   -1.619966   -0.701097
