20

C      -0.031172    1.451741    0.060320
C       0.056135   -0.046828   -0.004529
N      -0.806988   -0.899986    0.855837
C       0.673769   -0.934713    1.002401
C       1.393721   -1.959658    0.089991
O       2.192744   -2.937739    0.678365
C       0.331776   -2.257229   -1.010626
C       0.532095   -0.745448   -1.306383
C       2.039756   -0.983134   -0.942490
H       0.854969    1.916836   -0.385540
H      -0.907038    1.820819   -0.486711
H      -0.108567    1.802963    1.095082
H      -1.182016   -0.311473    1.599112
H       1.149757   -0.589215    1.914330
H       1.633990   -3.478246    1.247308
H       0.757828   -2.880873   -1.798465
H      -0.656301   -2.599997   -0.711368
H       0.233417   -0.303083   -2.255967
H       2.615408   -0.138833   -0.551458
H       2.599225   -1.503929   -1.722790
