18

O      -0.088731    1.360517    0.067639
C       0.019294   -0.030086    0.057053
C       0.872414   -0.744838    1.097193
N       0.606486   -2.144146    0.747075
C       0.372014   -2.176804   -0.722963
C      -0.783392   -2.185306    0.220179
C      -1.352711   -0.774795   -0.012759
C      -1.285670   -0.608697   -1.560080
C       0.244566   -0.766530   -1.319153
H       0.772356    1.733011   -0.150737
H       1.943216   -0.527026    1.005377
H       0.550773   -0.536109    2.122620
H       0.745327   -3.031770   -1.272521
H      -1.392820   -3.045441    0.466353
H      -2.205585   -0.449266    0.581479
H      -1.788339   -1.354628   -2.181268
H      -1.554141    0.401547   -1.877586
H       0.994783   -0.436452   -2.038765
