23

C       0.092862    1.514491    0.338194
C       0.011006    0.049549   -0.113239
C      -1.384882   -0.514223   -0.081996
C      -2.026892   -1.053767    1.170596
C      -1.858426   -1.968528   -0.009787
C      -2.964116   -1.695069   -1.033198
C      -2.469853   -0.206236   -1.140671
C      -3.479668    0.903691   -0.871962
O      -1.791138    0.031628   -2.368971
H       1.128557    1.869135    0.334133
H      -0.481097    2.163246   -0.330961
H      -0.303745    1.640892    1.351253
H       0.406364   -0.040993   -1.130224
H       0.650483   -0.568388    0.530445
H      -1.336216   -1.216424    1.992681
H      -3.019443   -0.744008    1.490178
H      -1.260666   -2.870739    0.045056
H      -2.810784   -2.206186   -1.985955
H      -3.992020   -1.861533   -0.690435
H      -3.979084    0.777246    0.092245
H      -2.988966    1.881419   -0.883775
H      -4.260178    0.905043   -1.644325
H      -2.457187    0.127622   -3.058209
