23

O      -0.054773    1.508843    0.080349
C       0.069060    0.087204    0.072733
C      -1.366542   -0.431253    0.248313
C      -1.525883   -1.933910    0.569518
C      -1.922169   -2.841125   -0.608421
C      -1.024562   -2.727329   -1.863290
C       0.438666   -2.844116   -1.544800
C       1.227349   -1.812416   -1.239328
C       0.800434   -0.364776   -1.212697
H       0.822112    1.885163   -0.044410
H       0.660910   -0.243638    0.943419
H      -1.782788    0.160345    1.069872
H      -1.950419   -0.156207   -0.639401
H      -0.600034   -2.308290    1.020001
H      -2.297877   -2.048730    1.338687
H      -1.923758   -3.880428   -0.256314
H      -2.953852   -2.618239   -0.909246
H      -1.322940   -3.502291   -2.578491
H      -1.222299   -1.765838   -2.349979
H       0.854769   -3.849259   -1.507824
H       2.261472   -2.011418   -0.966050
H       0.156580   -0.121787   -2.066486
H       1.694675    0.264100   -1.315780
