21

C      -0.616720    1.271802    0.348973
C       0.172277    0.059753   -0.161907
C       0.954396   -0.596872    0.950032
O       0.232992   -1.408231    1.896964
C       1.235464   -2.034801    1.097811
C       0.804268   -3.161419    0.191299
C       0.131341   -4.353905    0.920687
C      -1.115150   -3.957946    0.106920
O      -0.387207   -2.919157   -0.584041
H       0.044999    2.023319    0.794708
H      -1.167212    1.752399   -0.465123
H      -1.338445    0.967412    1.113207
H      -0.493326   -0.673737   -0.617171
H       0.884893    0.378894   -0.934374
H       1.670252    0.071273    1.439150
H       2.142905   -2.303595    1.650098
H       1.649439   -3.431738   -0.457289
H       0.549466   -5.333224    0.685393
H       0.043480   -4.239244    2.001599
H      -1.499347   -4.711962   -0.589312
H      -1.945087   -3.547542    0.692680
