16

O      -0.102033    1.359622   -0.153664
C      -0.049321   -0.045697    0.000323
C       0.285517   -0.477695    1.458160
C      -1.235079   -0.477412    1.724379
O      -1.916364   -0.338507    2.693333
C      -1.519772   -0.532831    0.202012
N      -2.587849    0.218117   -0.370123
C      -3.545671   -0.349244   -1.157611
O      -3.612546   -1.529093   -1.426093
H       0.791010    1.711450   -0.085850
H       0.517260   -0.526862   -0.803217
H       0.711078   -1.484173    1.524001
H       0.884709    0.212607    2.055483
H      -1.637708   -1.574719   -0.112569
H      -2.575136    1.218355   -0.247424
H      -4.271181    0.400110   -1.526901
