23

C       0.136117    0.907248   -1.535381
C      -0.160416    0.563923   -0.071133
C      -1.445069   -0.245109    0.089904
C      -1.488243   -1.693303   -0.429294
C      -0.599480   -2.589028    0.387285
C      -1.939558   -2.197668    0.940308
C      -1.926495   -0.773772    1.506272
C      -1.075654   -0.487374    2.737624
O      -3.282301   -0.418676    1.756455
H       1.059296    1.487274   -1.630934
H       0.249315   -0.001219   -2.136452
H      -0.676039    1.496277   -1.976309
H       0.690293    0.014037    0.349176
H      -0.240071    1.490526    0.513126
H      -2.287400    0.317924   -0.326128
H      -1.848600   -1.994179   -1.405568
H      -0.533361   -3.614953    0.038875
H       0.323552   -2.222413    0.828305
H      -2.708066   -2.920287    1.185698
H      -0.038100   -0.806427    2.609706
H      -1.062389    0.586936    2.961958
H      -1.493774   -1.009086    3.603956
H      -3.299348    0.509045    2.016353
