20

C      -0.955621    1.192964    0.086081
C      -0.080079   -0.052181   -0.038573
C       0.798102   -0.193235   -1.285420
C       1.672588    1.018498   -1.739456
C       2.941280    0.128340   -1.626282
C       2.110860   -0.914494   -0.831653
N       2.082766   -0.712367    0.600471
C       0.929165   -0.183467    1.118647
O       0.740978    0.107241    2.280284
H      -0.380308    2.110400   -0.070471
H      -1.772891    1.177294   -0.641053
H      -1.379929    1.236973    1.092469
H      -0.728020   -0.937206    0.038434
H       0.294087   -0.678401   -2.122356
H       1.451223    1.434196   -2.724152
H       1.668160    1.836384   -1.015416
H       3.257690   -0.272045   -2.593423
H       3.811632    0.550712   -1.118212
H       2.258331   -1.967912   -1.092380
H       2.868128   -0.896798    1.205288
