16

O      -0.006263    1.383713   -0.073720
C       0.017342   -0.028055   -0.011169
C       0.982400   -0.554836   -0.969734
C       1.820449   -0.917279   -1.753174
C      -0.055157   -0.705315    1.411111
C      -1.485349   -0.099378    1.531498
C      -1.399232   -0.674269    0.083002
C      -0.715173   -1.924573    0.707541
H       0.900947    1.687637   -0.178553
H       2.547638   -1.251021   -2.451795
H       0.735673   -0.717204    2.162505
H      -2.163742   -0.626737    2.205676
H      -1.560454    0.981057    1.632764
H      -2.161647   -0.647853   -0.696066
H      -0.086677   -2.532279    0.055013
H      -1.357046   -2.539600    1.340799
