19

C      -0.023618    1.424888    0.066010
N      -0.031185   -0.025285    0.052771
C       0.606523   -0.605176   -0.894837
N       1.330678   -0.034096   -1.903620
C       0.624915   -2.122371   -0.952685
O       1.170476   -2.671168   -1.895953
C      -0.032414   -2.859783    0.145694
C      -0.690727   -4.187765   -0.210342
C       0.588641   -4.193400    0.547776
H       0.999049    1.832909    0.097781
H      -0.516350    1.851030   -0.823900
H      -0.561873    1.788566    0.944294
H       1.172846    0.926600   -2.152782
H       1.619284   -0.671077   -2.631938
H      -0.483785   -2.247219    0.911939
H      -1.613031   -4.426528    0.306354
H      -0.652302   -4.466861   -1.257116
H       1.486804   -4.475938    0.010582
H       0.576950   -4.435658    1.604079
