14

C      -0.028686    1.549422    0.021422
C       0.004915    0.002665    0.012289
N       0.687919   -0.462799    1.228318
C      -1.383378   -0.511851    0.046832
N      -2.468185   -0.906033    0.068941
C       0.648217   -0.478034   -1.226268
C       1.242699   -0.869286   -2.202445
C       1.911567   -1.311765   -3.307987
N       2.485193   -1.685433   -4.246093
H       0.994988    1.931239   -0.015592
H      -0.577203    1.930124   -0.841465
H      -0.507602    1.884641    0.942912
H       0.736607   -1.477771    1.238483
H       1.643599   -0.116522    1.221883
