21

C       2.001356    0.843354   -0.512286
C       1.539173   -0.598921   -0.731312
C       2.597618   -1.411429   -1.482147
N       1.320923   -1.221002    0.583961
C       0.094015   -0.908718    1.304717
C       0.322967   -2.275380    0.751562
C      -0.542906   -2.841946   -0.368052
O      -1.363089   -1.908019   -1.052844
H       2.919387    0.863671    0.084080
H       2.197864    1.334472   -1.470428
H       1.241081    1.426988    0.016274
H       0.613015   -0.586187   -1.324114
H       3.533910   -1.432345   -0.915217
H       2.275550   -2.445859   -1.635427
H       2.794864   -0.972103   -2.465106
H       0.191763   -0.712290    2.369865
H      -0.643145   -0.288813    0.795538
H       0.646324   -3.056043    1.441376
H       0.088442   -3.295225   -1.140147
H      -1.148029   -3.655639    0.061633
H      -2.018092   -1.580890   -0.427927
