15

O       0.132643    0.232123   -0.673149
C      -0.043007    1.244524   -0.081399
C      -1.212727    2.126739    0.369601
C      -0.098381    2.980119    0.950263
O       0.919763    2.072518    0.467071
C       0.229108    4.443497    0.956188
C      -0.982258    5.205703    1.478804
O      -1.085856    4.333932    2.643198
C       0.104308    3.648237    2.259737
H      -1.785540    2.559922   -0.452594
H      -1.886127    1.657791    1.088532
H       1.093468    4.848262    0.447903
H      -0.753369    6.230182    1.790520
H      -1.893617    5.196994    0.870159
H       0.814477    3.346764    3.021008
