19

C       0.022991    1.298070    0.218291
O       0.003786   -0.062648   -0.151544
C      -1.252827   -0.664102   -0.071739
C      -1.355158   -2.074094   -0.611455
C      -1.033258   -2.974441    0.588806
O      -0.662937   -2.144890    1.685266
C      -1.759716   -1.268893    1.291915
C      -2.352575   -0.483179    2.419628
C      -2.408801   -2.429648    0.441924
H       1.026819    1.676181    0.010634
H      -0.704706    1.887078   -0.362634
H      -0.190542    1.444227    1.286709
H      -2.035657   -0.018525   -0.500855
H      -1.294741   -2.406970   -1.638993
H      -0.628276   -3.974679    0.517885
H      -1.579272    0.121951    2.903989
H      -3.139339    0.184591    2.055237
H      -2.781062   -1.149758    3.173842
H      -3.399485   -2.854085    0.367343
