21

C      -0.090465    1.526314    0.124071
C       0.087725    0.030111    0.005895
C       0.746061   -0.668029   -1.175995
C       1.675568    0.118750   -2.096258
C       2.830862    0.539248   -1.200013
C       3.946699    1.394972   -1.711066
C       2.666760    0.065400    0.040249
C       1.400267   -0.712246    0.190836
O       1.421123   -1.900708    0.929606
H       0.808758    2.067411   -0.180537
H      -0.921590    1.872212   -0.501073
H      -0.314007    1.813908    1.157649
H      -0.753102   -0.547057    0.387203
H       0.251892   -1.552754   -1.559188
H       2.028761   -0.494246   -2.936444
H       1.182579    0.992254   -2.545402
H       3.579980    2.369422   -2.058491
H       4.702345    1.574647   -0.941483
H       4.440390    0.925912   -2.572118
H       3.351635    0.223681    0.867025
H       1.224202   -1.684052    1.846860
