19

C      -0.093269    1.538534    0.019426
N       0.178526    0.105765    0.067710
C       1.298684   -0.671411   -0.381643
C       2.723025   -0.217603    0.089796
C       2.755863    1.037004    0.915760
C       2.244761   -0.236591    1.533376
C       0.823613   -0.717607    1.047359
C       0.054210   -1.751064    1.816326
H       0.543513    2.049922   -0.709714
H      -1.135467    1.691386   -0.286759
H       0.036834    2.015434    0.996808
H       1.158785   -1.386454   -1.187497
H       3.621467   -0.668734   -0.311510
H       3.752868    1.309225    1.253407
H       2.128773    1.891880    0.715006
H       2.734780   -0.697575    2.381854
H      -0.366346   -1.324804    2.736091
H      -0.770503   -2.135965    1.211201
H       0.699993   -2.587228    2.107005
