12

O       0.079816   -0.031858    0.052941
C       0.001497    1.151081   -0.037518
O       1.109367    1.942221    0.173033
C       0.948153    3.290275    0.114888
N      -0.157465    3.977125    0.178151
C       0.252582    5.296723    0.081472
C       1.610358    5.376811   -0.030031
N       2.054806    4.063040   -0.009382
H      -0.889290    1.744198   -0.282112
H      -0.463621    6.102656    0.106534
H       2.292190    6.205591   -0.112183
H       3.002315    3.730726   -0.073557
