15

C      -0.182475    1.451513   -0.128609
O      -0.021297    0.028552   -0.045135
C       0.706827   -0.501911    1.005902
C       0.106659   -0.278560    2.414077
O      -0.873871    0.379028    2.619075
C       0.694456   -2.034188    0.812181
O       1.241108   -2.799161    1.559398
C       2.205983   -0.121670    1.038965
O       2.711095    0.646979    0.270926
H       0.781451    1.951334   -0.241583
H      -0.781304    1.616836   -1.026062
H      -0.719543    1.838822    0.739314
H       0.651256   -0.815660    3.217207
H       0.125623   -2.332621   -0.090250
H       2.780638   -0.656665    1.822322
