19

C      -0.006935    1.365435   -0.107750
O      -0.010792   -0.042490    0.053872
C      -1.276023   -0.607195    0.033094
O      -1.887623   -0.454121   -1.261460
C      -2.520529   -1.676852   -1.566170
C      -1.691601   -2.940001   -1.694853
C      -0.380566   -2.758561   -0.930075
C      -1.200085   -2.119317    0.238304
C      -2.504834   -2.633358   -0.425750
H       1.028445    1.695343    0.000508
H      -0.381710    1.654132   -1.096079
H      -0.621679    1.855990    0.662012
H      -1.923582   -0.108325    0.778189
H      -3.393199   -1.562173   -2.197693
H      -1.892815   -3.674559   -2.466996
H       0.043244   -3.719578   -0.630676
H       0.396253   -2.135354   -1.379026
H      -0.954160   -2.420003    1.254779
H      -3.351805   -3.126363    0.032222
