22

C       0.358351    1.398370   -0.114047
N       0.115918   -0.034437    0.017673
C       0.779696   -0.618327    1.192126
C       1.214631   -2.058832    0.905382
O       1.991823   -2.119091   -0.270383
C      -1.265530   -0.448439   -0.133111
C      -2.461177    0.359793    0.463943
O      -3.100438    0.415631   -0.826576
C      -1.974536   -0.198544   -1.483020
H       1.431887    1.572902   -0.229489
H      -0.140043    1.789069   -1.004600
H       0.011246    1.986480    0.751657
H       1.679873   -0.027347    1.386376
H       0.156163   -0.570929    2.101463
H       1.828840   -2.426213    1.734920
H       0.335987   -2.723331    0.840059
H       1.553511   -1.508716   -0.880955
H      -1.326373   -1.499618    0.152334
H      -3.078332   -0.159119    1.206716
H      -2.215572    1.359411    0.843672
H      -1.456645    0.494662   -2.158259
H      -2.261045   -1.091394   -2.051251
