19

O      -0.040662    1.406339   -0.136265
C       0.006560   -0.001720    0.059184
C      -1.428861   -0.520747    0.029253
C      -2.087142   -0.315144   -1.384587
C      -1.766974   -1.617615   -2.117360
C      -1.518083   -2.562107   -1.218632
C      -0.561496   -3.649977   -0.801417
O      -0.293001   -2.885597    0.417367
C      -1.492253   -2.055025    0.184138
H       0.863122    1.730630   -0.182275
H       0.597605   -0.495313   -0.725839
H       0.467745   -0.258108    1.023771
H      -1.991333   -0.000457    0.810386
H      -3.165234   -0.127206   -1.299240
H      -1.657444    0.555952   -1.887859
H      -1.651233   -1.682025   -3.192942
H      -1.006396   -4.623856   -0.558563
H       0.332709   -3.796772   -1.416151
H      -2.286701   -2.384095    0.866620
