20

C      -0.027731    1.514536    0.290364
C       1.507210    1.577132   -0.057765
C       1.227832    0.326692   -0.919604
C       0.019856   -0.009338   -0.075522
C      -0.733603   -0.894116   -1.088813
N       0.263716   -1.023652   -2.205017
C       0.747674    0.395447   -2.413233
C       2.102374   -0.149663   -2.896547
C       1.722593   -0.952354   -1.641220
H      -0.317822    1.775608    1.309978
H      -0.623808    2.101465   -0.413636
H       1.891794    2.467905   -0.559699
H       2.119428    1.368729    0.824415
H       0.298681   -0.573460    0.821990
H      -0.991379   -1.880774   -0.694729
H      -1.641085   -0.445237   -1.505991
H       0.105299    1.144039   -2.884914
H       2.085687   -0.689726   -3.844362
H       2.965373    0.511957   -2.804326
H       2.201184   -1.834298   -1.210896
