13

O      -0.414724    0.454745    0.566148
C       0.045666    1.017116   -0.386578
C       1.363429    1.807502   -0.329740
C       1.348693    2.976874   -1.185549
C       1.280020    3.934942   -1.917054
C       1.194348    5.065316   -2.799664
O       1.795134    6.108959   -2.654325
C       0.263147    4.913633   -4.013418
O      -0.374597    3.925612   -4.251893
H      -0.434041    0.994500   -1.387062
H       1.581813    2.055857    0.713699
H       2.155642    1.122079   -0.668667
H       0.253167    5.828411   -4.641716
