17

C      -0.172234    1.693992   -0.185373
C       0.014630    0.188338   -0.091178
C      -1.304614   -0.554410    0.212581
C      -1.946715   -0.107497    1.446671
N      -2.457958    0.256227    2.416890
C       0.841427   -0.480226   -1.220666
C       1.836417   -0.826270   -0.096400
O       1.021503   -0.160310    0.891671
H       0.785604    2.177342   -0.393644
H      -0.873297    1.949988   -0.987459
H      -0.561877    2.092388    0.755676
H      -2.004803   -0.413858   -0.619643
H      -1.102466   -1.627358    0.293125
H       0.366117   -1.330193   -1.714196
H       1.212046    0.211411   -1.978623
H       1.954928   -1.894060    0.122606
H       2.829651   -0.370959   -0.178616
