16

C       0.166816    1.443156    0.110005
N      -0.250369    0.071803   -0.152151
C       0.464187   -0.651885   -1.108421
C       0.667599   -2.002666   -1.191111
C       0.278736   -3.148465   -0.327646
O       1.356484   -2.283536   -2.323939
N       1.631992   -1.113272   -3.003993
C       1.101563   -0.154873   -2.282768
H       1.229069    1.542033    0.384088
H      -0.014165    2.063545   -0.773563
H      -0.442521    1.847734    0.921567
H      -0.387278   -0.454894    0.699590
H      -0.635907   -3.640272   -0.680262
H       1.073524   -3.899718   -0.306171
H       0.100036   -2.814607    0.699428
H       1.192083    0.867220   -2.620908
