19

C       0.371505    1.525704   -0.490350
N       0.076270    0.161087   -0.067323
C       1.163820   -0.788172    0.041111
C       0.453705   -0.312120    1.272382
C       1.156311    0.513430    2.277647
N       0.791659    0.616701    3.491975
C       1.773952    1.482043    4.157242
C       2.738377    1.924371    3.027121
O       2.277738    1.183339    1.874204
H       1.357923    1.892733   -0.181847
H       0.307476    1.560403   -1.582524
H      -0.394628    2.195232   -0.086601
H       0.969371   -1.790129   -0.333341
H       2.180863   -0.426961   -0.100002
H      -0.296285   -0.941338    1.740397
H       1.269769    2.329579    4.632444
H       2.284171    0.923552    4.950140
H       2.676958    2.992066    2.796149
H       3.783641    1.660192    3.205929
