17

C      -0.101677    1.598776   -0.038128
C      -0.009060    0.063098    0.010027
C       0.831489   -0.522549   -1.127315
C       1.857350   -1.274054   -0.685274
C       1.811893   -1.278478    0.772613
N       2.508799   -1.806489    1.770180
N       1.846882   -1.348951    2.863267
C       0.766372   -0.559206    2.574020
C       0.715568   -0.493765    1.205204
H       0.894111    2.047076    0.022360
H      -0.572678    1.932034   -0.968572
H      -0.698947    1.978327    0.796714
H      -1.029401   -0.342399   -0.056355
H       0.597423   -0.322361   -2.166321
H       2.589193   -1.788083   -1.294086
H       2.181544   -1.611592    3.774368
H       0.161851   -0.138418    3.362315
