21

C      -0.111562    1.544109   -0.043424
C       0.040493    0.028052    0.004234
C       1.086940   -0.584891   -0.936947
O       2.319273   -0.056524   -0.469792
C       2.208358   -0.071458    0.966549
C       0.777276   -0.597291    1.226720
C       0.233109   -0.364832    2.622642
C       0.792292   -2.067020    0.755595
O       1.017203   -1.973755   -0.665580
H       0.855113    2.052643   -0.023601
H      -0.623812    1.847071   -0.962481
H      -0.710344    1.908278    0.797917
H      -0.930818   -0.455635   -0.143874
H       1.021534   -0.427285   -2.012488
H       2.975269   -0.729612    1.393180
H       2.363664    0.941318    1.358856
H       0.205029    0.702063    2.866632
H      -0.783588   -0.759868    2.720991
H       0.854562   -0.858839    3.378275
H       1.595450   -2.652950    1.218889
H      -0.165072   -2.570737    0.947206
