19

C       0.075348    1.601118   -0.089938
C       0.093095    0.081471    0.004102
C       1.093406   -0.735635   -0.870151
C       1.261873   -1.728245    0.349508
C       2.252842   -0.696275    0.946182
C       2.474920   -0.195448   -0.444777
O       3.422171    0.233403   -1.043063
C       0.733479   -0.631548    1.212929
C       0.194446   -0.692682    2.612527
H       1.073592    2.027244    0.052884
H      -0.288195    1.927331   -1.070221
H      -0.586982    2.031923    0.668684
H      -0.916770   -0.324318   -0.131553
H       0.887032   -0.990638   -1.906212
H       1.305802   -2.804009    0.424036
H       2.965091   -0.842903    1.746982
H       0.246425    0.286152    3.101761
H      -0.853597   -1.012256    2.608820
H       0.758158   -1.402286    3.226744
