16

C      -0.184969    1.374600    0.018042
C      -0.071218   -0.061790    0.403278
C      -1.051554   -1.000012    0.444830
C      -1.678010   -1.435926   -0.879613
C      -0.557626   -2.563798   -0.806338
C      -0.430054   -2.385937    0.640258
N       0.802062   -2.231613   -0.142146
C       1.181509   -0.830187    0.057593
O       2.252003   -0.384306   -0.248569
H       0.608178    1.659977   -0.678379
H      -1.165884    1.600114   -0.414247
H      -0.073214    2.011612    0.905029
H      -2.638093   -1.959439   -0.824603
H      -1.686757   -0.705966   -1.692494
H      -0.548204   -3.471020   -1.401146
H      -0.487580   -3.068207    1.478872
