19

C       0.030128    1.632784    0.007463
C       0.029262    0.111301   -0.045969
C       1.119103   -0.594470   -0.938850
C       1.630951   -1.305913    0.316993
O       2.004514   -0.293678    1.264246
C       0.617436   -0.649359    1.163996
C      -0.053377   -1.116100    2.398413
C      -1.192487   -0.403652    2.995543
O      -1.391813   -1.598868    2.239425
H       1.011325    2.001206    0.320192
H      -0.196009    2.055897   -0.976942
H      -0.718765    2.015207    0.709515
H      -0.964339   -0.280238   -0.280968
H       0.687301   -1.272901   -1.677870
H       1.846851    0.062052   -1.422969
H       2.112886   -2.272102    0.416331
H       0.580378   -1.718535    3.049537
H      -1.374407   -0.489070    4.065768
H      -1.561414    0.508932    2.531215
