16

C      -0.110512    1.390287   -0.168827
O       0.010863   -0.022145   -0.044155
C       0.643978   -0.644691   -1.053437
N       1.131826   -0.002128   -2.108743
N       1.679130   -0.984212   -2.871807
C       2.313983   -0.641481   -4.121349
C       1.536964   -2.206061   -2.308333
C       0.865602   -2.038820   -1.116194
H       0.874024    1.867111   -0.224195
H      -0.675164    1.659532   -1.067929
H      -0.641364    1.726337    0.723234
H       2.688834   -1.554569   -4.587547
H       1.599116   -0.161071   -4.796271
H       3.149565    0.044524   -3.952270
H       1.918827   -3.092524   -2.791022
H       0.576963   -2.789320   -0.400545
