17

O      -0.535483    0.419353    0.532399
C      -0.069426    1.464626    0.170607
C       1.368707    1.624555   -0.329446
C       1.471785    2.577614   -1.424772
C       1.495934    3.360158   -2.340105
C       1.567512    4.325821   -3.429313
C       2.390974    5.586213   -3.051000
C       2.458670    6.547543   -4.143276
C       2.495218    7.319358   -5.063822
H      -0.654218    2.409962    0.186935
H       1.962635    1.970217    0.531050
H       1.749153    0.633559   -0.597954
H       2.015583    3.861078   -4.315109
H       0.558608    4.636168   -3.724626
H       1.942876    6.052917   -2.166330
H       3.400979    5.277520   -2.758151
H       2.537271    8.011990   -5.867524
