16

C      -0.206625    1.307324    0.109120
C       1.380454    1.238743    0.046252
C       2.206005    0.102988    0.740499
C       1.536479   -1.312864    0.511357
C       0.095025   -1.092555    0.307381
C      -0.050721   -0.065354   -0.564902
C       1.317745    0.294254   -1.186859
C       2.352620   -0.653970   -0.566776
H      -0.713628    1.329271    1.075635
H      -0.552234    2.137289   -0.518257
H       1.926446    2.183315   -0.014273
H       2.917452    0.228455    1.545511
H       1.963206   -2.129256    1.084225
H      -0.607969   -1.274266    1.115813
H       1.370099    0.662945   -2.208699
H       3.223750   -1.097242   -1.029241
