20

C      -0.039057    1.614492   -0.036986
C      -0.004890    0.087177    0.009503
C       0.765374   -0.513532   -1.196499
C       1.897759   -1.329686   -0.550032
O       2.097567   -0.735017    0.728376
C       0.802853   -0.462419    1.221608
O      -1.342640   -0.451279   -0.043520
C      -2.150932   -0.257314    1.015303
N      -3.341333   -0.679239    0.981983
H       0.983762    2.002155   -0.009984
H      -0.519303    1.958392   -0.957578
H      -0.583506    2.036040    0.813777
H       0.091495   -1.119577   -1.803553
H       1.168475    0.284520   -1.824111
H       1.607396   -2.386069   -0.437816
H       2.844322   -1.285739   -1.092759
H       0.900456    0.245062    2.049140
H       0.314987   -1.380604    1.587991
H      -1.680224    0.270258    1.854718
H      -3.809559   -0.461967    1.859343
