14

O       0.137014    1.416174    0.060149
C       0.017668    0.038704    0.010540
C       0.207502   -0.755246    1.331726
O      -0.753161   -0.095964    2.218121
C      -1.769857   -0.746310    1.462879
C      -0.884739   -1.772918    0.865980
C      -1.380639   -0.622057   -0.035557
C      -2.323922   -0.666453   -1.095518
N      -3.092425   -0.700529   -1.961210
H      -0.281912    1.694512    0.886488
H       0.649331   -0.343756   -0.793674
H       1.173095   -0.942214    1.792617
H      -2.789850   -0.756861    1.820768
H      -0.936743   -2.843061    0.735549
