18

C      -0.266721    1.306865   -0.038439
O       0.170620   -0.035380    0.090411
C       0.775042   -0.521419   -1.047834
C      -0.003502   -1.010128   -2.235894
C       0.872986   -1.978951   -1.465040
C       2.332351   -1.776585   -1.853739
O       2.599006   -2.073723   -3.207545
C       2.238574   -0.263253   -1.430444
H       0.572500    1.991795   -0.226189
H      -0.994380    1.414579   -0.854816
H      -0.741324    1.580371    0.906513
H      -1.064441   -1.139730   -2.048137
H       0.257381   -0.727354   -3.251344
H       0.463018   -2.862827   -0.993346
H       3.009262   -2.327795   -1.188092
H       3.520121   -1.858664   -3.385456
H       2.419817    0.466844   -2.225696
H       2.867388   -0.034600   -0.566496
