20

C      -0.450326    1.668406    0.337904
C      -0.300275    0.216409    0.001762
C      -0.934016   -0.904660    0.793452
C      -1.968080   -1.979805    0.472785
O      -2.680924   -2.210834    1.683594
C       0.560101   -0.892118    0.598182
C       1.010383   -1.193966   -0.838768
C      -0.057453   -1.439534   -1.831836
N       0.212658   -0.052226   -1.409574
H       0.437020    2.229714    0.029016
H      -1.313305    2.098730   -0.184621
H      -0.599259    1.809773    1.412417
H      -1.168590   -0.512484    1.782703
H      -2.654314   -1.642129   -0.320333
H      -1.481458   -2.903696    0.129108
H      -3.334713   -2.896867    1.518439
H       1.260565   -0.850466    1.423220
H       2.060337   -1.301986   -1.092547
H       0.270267   -1.612130   -2.854538
H      -0.991232   -1.924965   -1.589202
