21

O      -0.055277    1.477821    0.013682
C       0.038974    0.060997    0.022471
C      -1.374586   -0.504862   -0.009755
C      -1.403142   -2.035588    0.000033
C      -2.824949   -2.602710   -0.031093
C      -2.851589   -4.142471    0.027202
O      -2.196082   -4.647297    1.190096
C      -4.221167   -4.654412   -0.079832
C      -5.356107   -5.048872   -0.124274
H       0.835704    1.838506    0.035324
H       0.606284   -0.306194   -0.848867
H       0.561950   -0.298748    0.923935
H      -1.924486   -0.110393    0.853813
H      -1.882087   -0.119672   -0.902878
H      -0.843719   -2.420224   -0.864440
H      -0.890654   -2.418584    0.889622
H      -3.408415   -2.213634    0.814028
H      -3.346536   -2.281137   -0.940652
H      -2.260045   -4.533169   -0.810846
H      -2.783917   -4.496846    1.939011
H      -6.352531   -5.412717   -0.178113
