21

C      -0.090546    1.540039   -0.086562
C       0.013364    0.029260    0.005365
C       1.296324   -0.733120   -0.263677
O       2.523630   -0.044482   -0.308567
C       3.184555    0.098662    0.952913
C       2.329026    0.933238    1.939356
C       1.580428   -0.399852    2.226834
C       2.939513   -1.108047    1.903249
C       0.651808   -0.828151    1.094553
H       0.884514    1.999758   -0.259915
H      -0.726674    1.806598   -0.936582
H      -0.535343    1.989639    0.806996
H      -0.854866   -0.475206   -0.413067
H       1.281212   -1.566892   -0.960521
H       4.203520    0.408867    0.716867
H       2.921891    1.227320    2.810318
H       1.790049    1.799000    1.563781
H       1.125175   -0.532145    3.210238
H       2.908457   -2.110517    1.470279
H       3.638522   -1.082324    2.742830
H       0.118039   -1.749288    1.316109
