18

C      -0.020266    1.530885    0.081183
C      -0.052564    0.039572   -0.060521
C       0.661496   -0.793095   -1.174744
C      -0.269270   -1.931530   -0.623987
C       0.266392   -2.023861    0.816762
O       0.408424   -0.619314    1.143479
C      -1.271497   -0.798294   -0.428980
N      -2.483012   -0.519623   -0.634545
O      -3.204134   -1.649167   -1.085720
H       1.000432    1.871613    0.277320
H      -0.384777    2.007937   -0.831874
H      -0.654729    1.844554    0.914492
H       0.402275   -0.480539   -2.187119
H       1.739739   -0.927653   -1.052740
H      -0.495712   -2.846196   -1.163793
H      -0.434653   -2.503076    1.508405
H       1.239824   -2.523386    0.882743
H      -4.089943   -1.287410   -1.197255
