19

C      -0.587557    1.170671   -0.303934
C       0.780845    1.255062    0.318221
C       0.191440   -0.088804   -0.057889
C      -0.174132   -1.044129    1.033715
O      -1.230436   -0.687570    1.940529
C      -1.413883   -1.841373    1.126156
C      -2.550243   -1.861782    0.150460
C      -3.837338   -1.222637    0.463557
O      -2.945565   -0.667455   -0.506007
H      -1.444784    1.341126    0.332755
H      -0.716465    1.491943   -1.330998
H       1.607055    1.635354   -0.272408
H       0.835072    1.495965    1.374962
H       0.633105   -0.578353   -0.922340
H       0.689425   -1.475419    1.547905
H      -1.343429   -2.787636    1.671817
H      -2.560465   -2.752310   -0.481821
H      -4.761525   -1.639577    0.067141
H      -3.924988   -0.651423    1.385251
