23

C      -0.003589    1.546541    0.030268
C      -0.021500    0.014034   -0.053703
C      -1.451595   -0.527188    0.009830
O      -2.017624   -0.145572    1.256643
C       0.694856   -0.493821   -1.287923
C       0.332774   -0.242940   -2.792144
C       1.611595   -1.123845   -2.813111
C       2.177883   -0.211208   -1.691056
C       0.961998   -1.981678   -1.693905
H       1.020562    1.928678    0.074752
H      -0.489594    1.990873   -0.846390
H      -0.539062    1.882940    0.920407
H       0.504762   -0.386661    0.824631
H      -2.036098   -0.120442   -0.831947
H      -1.439217   -1.622948   -0.095871
H      -2.932932   -0.438650    1.273647
H      -0.586933   -0.706175   -3.162503
H       0.437561    0.781944   -3.159646
H       2.141524   -1.487659   -3.693918
H       2.424350    0.816793   -1.971871
H       2.948538   -0.643937   -1.045692
H       1.641222   -2.548100   -1.049396
H       0.092270   -2.580920   -1.979539
