12

C       0.117652    1.502425    0.075479
C      -0.030111    0.029669    0.042972
C      -1.089446   -0.821772   -0.097582
N      -0.640758   -2.143452   -0.054480
C       0.630679   -2.027386    0.105401
O       1.081097   -0.745837    0.174130
C      -2.452260   -0.465783   -0.264189
N      -3.554334   -0.138070   -0.398507
H       0.772293    1.850603   -0.730425
H      -0.861241    1.970883   -0.042648
H       0.552604    1.833995    1.024237
H       1.371598   -2.806266    0.190374
