18

C      -0.013356    1.438220    0.056473
N      -0.027522   -0.009306    0.014735
C      -0.005170   -0.778060   -1.111891
C       0.042106   -2.105883   -0.742968
C       0.053173   -2.160961    0.672661
C       0.089412   -3.382647    1.537260
C       0.012918   -0.843497    1.123715
C       0.004351   -0.339068    2.437563
C      -0.003238    0.094703    3.563944
H       0.986700    1.824570    0.282784
H      -0.329992    1.824810   -0.914038
H      -0.702546    1.797863    0.823890
H      -0.025359   -0.317098   -2.087245
H       0.056776   -2.948486   -1.417819
H       0.973481   -3.996428    1.329317
H       0.111614   -3.109564    2.595406
H      -0.788083   -4.019208    1.373616
H      -0.008785    0.468002    4.557569
