18

O      -0.088655    1.455722   -0.019309
C       0.015410    0.039723   -0.041276
C      -1.356622   -0.597819   -0.116673
C      -1.235554   -2.007124   -0.623124
C      -1.928716   -0.972632   -1.483415
N      -0.921884   -1.064345   -2.569586
C       0.073427    0.060431   -2.552095
C       0.731731   -0.533734   -1.286760
C      -0.056588   -1.855360   -1.606486
H       0.796495    1.819213    0.084621
H       0.516621   -0.311178    0.875645
H      -2.084498   -0.376441    0.655932
H      -1.602678   -2.902985   -0.142038
H      -2.979703   -0.834201   -1.711177
H       0.699146    0.003879   -3.447622
H      -0.347394    1.063444   -2.455191
H       1.821169   -0.547278   -1.206074
H       0.466114   -2.726516   -2.001962
