9

F       0.142808    0.118485    0.001845
C      -0.047436    1.401812    0.011130
N      -1.179899    1.938014    0.029581
C      -1.234849    3.364418    0.037738
O      -2.275710    3.948487    0.055442
N       0.011178    4.060795    0.023742
C       1.058919    3.373599    0.005703
F       2.253334    3.879938   -0.008499
O       1.165783    2.017330   -0.002577
