20

C      -0.330971    1.526458    0.002602
C       0.046615    0.048983   -0.079574
O       0.811007   -0.253052   -1.259971
C       2.103978   -0.703115   -0.855093
C       2.785559   -1.390878   -2.009055
C       2.820327    0.420319   -0.063576
N       2.312125   -0.118707    1.247384
C       0.878496   -0.502919    1.069292
C       1.915448   -1.388504    0.528373
H       0.541482    2.168449    0.142526
H      -0.844362    1.832793   -0.913054
H      -1.010955    1.689542    0.845800
H      -0.882771   -0.538097   -0.133393
H       2.899602   -0.700093   -2.850114
H       3.777140   -1.747541   -1.716659
H       2.191134   -2.244197   -2.349441
H       3.909378    0.319229   -0.062505
H       2.547070    1.451227   -0.305304
H       0.389115   -0.716927    2.013262
H       2.193800   -2.381589    0.860018
