15

O       0.090342    1.335536    0.245399
C       0.069353   -0.001932    0.040697
C       0.062233   -0.816843   -1.074573
N       0.037413   -2.149901   -0.703711
C       0.030300   -2.125784    0.607588
C       0.008100   -3.031848    1.739803
C       0.013624   -2.306919    2.873755
C       0.040705   -0.818768    2.563338
N       0.049185   -0.841422    1.112880
H       0.106085    1.774548   -0.611004
H       0.073487   -0.512557   -2.110490
H      -0.009679   -4.108536    1.654931
H       0.001217   -2.680892    3.887296
H      -0.838019   -0.290410    2.953321
H       0.931956   -0.320352    2.964169
