22

C      -0.486036    1.442969    0.052170
C       0.125632    0.059133   -0.072040
O       1.218907    0.100981   -1.024339
C       2.191157   -0.700670   -0.506224
C       3.354643   -0.937294   -1.408114
N       2.038911   -1.161440    0.667817
C       0.771161   -0.603276    1.193909
C       1.123318    0.385984    2.315550
C      -0.110371   -1.729758    1.741435
H       0.240503    2.172347    0.417976
H      -0.850510    1.781929   -0.921629
H      -1.335803    1.421900    0.741774
H      -0.622658   -0.628381   -0.489620
H       3.027205   -1.425163   -2.331674
H       3.813274    0.015721   -1.690539
H       4.090477   -1.562388   -0.903488
H       1.753143    1.200384    1.946517
H       0.225017    0.818855    2.767364
H       1.682659   -0.138407    3.094851
H       0.382292   -2.225178    2.582569
H      -1.073468   -1.338547    2.089332
H      -0.301916   -2.482012    0.970592
