16

O       0.747749    0.630437   -1.378745
C       0.369554    1.436181   -0.552871
N       1.081295    1.798842    0.544667
C       2.380901    1.215014    0.844122
C       3.483211    1.728389   -0.087335
C       4.833415    1.146276    0.238920
O       5.044379    0.333236    1.110564
C       6.027831    1.633541   -0.595279
O       5.945148    2.485848   -1.438925
H      -0.605320    1.958897   -0.614071
H       0.692779    2.487790    1.167233
H       2.625401    1.435607    1.885497
H       2.308778    0.128313    0.749521
H       3.238405    1.477138   -1.126707
H       3.561515    2.822700   -0.066847
H       6.976103    1.122714   -0.324723
