22

C      -0.309710    1.536873   -0.032977
C      -0.255435    0.015502   -0.191352
C       0.937492   -0.458668   -1.033963
C       0.983905   -1.967200   -1.176046
C       0.228771   -2.675131   -2.277346
C       1.737161   -2.688004   -2.271644
C       2.528714   -1.939476   -3.335003
C       2.712400   -2.737384   -4.549248
N       2.855634   -3.377900   -5.500296
H       0.595425    1.917914    0.453041
H      -0.395627    2.034150   -1.005658
H      -1.167025    1.844085    0.573670
H      -0.205394   -0.456397    0.798597
H      -1.183541   -0.344808   -0.652298
H       0.881606    0.016908   -2.021196
H       1.868893   -0.099844   -0.573863
H       1.000612   -2.484915   -0.219256
H      -0.300819   -3.595440   -2.059294
H      -0.257919   -2.051551   -3.022071
H       2.204513   -3.624405   -1.981828
H       2.028777   -1.006873   -3.614602
H       3.519578   -1.660715   -2.955770
