21

C       0.027867    1.551256   -0.034170
C       0.034043    0.037436   -0.003617
C       0.450904   -0.702952   -1.270857
C       0.360543   -1.990434   -0.948774
C      -0.108127   -1.988423    0.503187
C      -0.314292   -3.324290    1.185522
C       0.641538   -0.783755    1.206569
C      -0.622402   -0.484708    2.047232
C      -1.150407   -0.802706    0.628155
H       1.026501    1.937962   -0.267291
H      -0.654983    1.920243   -0.807942
H      -0.282631    1.991474    0.917134
H       0.746678   -0.238910   -2.202247
H       0.561932   -2.871209   -1.543739
H       0.616510   -3.902824    1.193431
H      -0.648091   -3.222146    2.221534
H      -1.065124   -3.919314    0.653207
H       1.687662   -0.776091    1.530644
H      -0.871078   -1.192050    2.840809
H      -0.749661    0.537837    2.407994
H      -2.188516   -0.817092    0.279463
