17

O       0.214154    1.364390   -0.049067
C       0.052510   -0.023269   -0.032202
C       0.344388   -0.713711    1.310149
O      -0.582581   -0.116338    2.236134
C      -1.038076   -1.205818    1.413276
C      -1.422861   -0.621504    0.051443
C      -2.612024    0.343159    0.001306
C      -2.850322    0.879274   -1.333288
C      -3.042926    1.290973   -2.445662
H      -0.094508    1.684260    0.808260
H       0.610237   -0.430040   -0.877879
H       1.271469   -1.097126    1.720108
H      -1.429617   -2.075230    1.928578
H      -1.543403   -1.411874   -0.694896
H      -3.511472   -0.182631    0.348902
H      -2.445795    1.161452    0.710203
H      -3.210717    1.673453   -3.421677
