21

C      -0.004720    1.543236    0.016566
C      -0.012566    0.013732   -0.095020
C       0.686387   -0.487651   -1.324892
N       0.316183   -0.096025   -2.731613
C       1.469367   -1.035344   -2.911285
C       2.207934   -0.469680   -1.666078
N       2.436480   -1.790900   -0.996040
C       1.113891   -1.963582   -1.690615
C       0.306185   -3.225335   -1.645455
H       1.018037    1.924679    0.099205
H      -0.457602    2.000046   -0.867754
H      -0.559629    1.873986    0.899481
H       0.478975   -0.439234    0.774348
H      -1.047609   -0.354699   -0.096858
H      -0.558213   -0.555377   -3.004526
H       1.880696   -1.303680   -3.887359
H       2.902953    0.367842   -1.610877
H       3.165375   -2.313184   -1.491278
H       0.096632   -3.514234   -0.610717
H      -0.649088   -3.088807   -2.165245
H       0.834606   -4.054020   -2.129716
