17

N       0.193930    1.587694    0.283104
C      -0.002407    0.174555   -0.027434
C      -1.482736   -0.177743   -0.308083
C      -1.353444   -1.424311   -1.182266
O      -0.144368   -1.226808   -1.947507
C       0.649238   -0.303187   -1.344355
N       1.739980    0.143491   -1.790365
C       0.521186   -0.650368    1.066526
C       0.938873   -1.349013    1.950163
H       1.192158    1.743819    0.404471
H      -0.060855    2.131211   -0.539086
H      -2.059459   -0.341336    0.601815
H      -1.937645    0.643357   -0.872171
H      -1.244586   -2.333289   -0.580632
H      -2.173526   -1.559364   -1.889985
H       1.982055   -0.293403   -2.680926
H       1.321831   -1.954782    2.734195
