12

C      -0.016987    1.435245    0.019050
N      -0.009412   -0.016787    0.003465
N       0.075590   -0.705937   -1.131930
C       0.093749   -1.973767   -0.731622
C       0.018427   -1.995073    0.673057
N      -0.044968   -0.727077    1.114097
C       0.000176   -3.110384    1.549818
N      -0.011410   -4.044719    2.232033
H       0.984740    1.818162   -0.192158
H      -0.710400    1.793935   -0.742274
H      -0.335812    1.753385    1.010015
H       0.152483   -2.790818   -1.431610
