22

C      -0.055095    1.529532    0.152321
C      -0.098953    0.014303    0.158709
C      -1.417724   -0.571463   -0.311522
N       1.155073   -0.623780   -0.306846
C       0.780654   -0.736695    1.102593
C       1.609267   -0.188112    2.274432
C       0.942286   -1.254511    3.188007
C       0.490947   -2.018848    1.913818
O      -0.759254   -2.663562    1.881919
H       0.940226    1.895189    0.412170
H      -0.303093    1.912137   -0.844321
H      -0.779227    1.948542    0.860740
H      -1.606689   -0.275831   -1.350484
H      -1.424877   -1.660939   -0.247544
H      -2.255456   -0.190788    0.285902
H       0.940301   -1.497998   -0.785332
H       2.679083   -0.361201    2.128448
H       1.458424    0.858074    2.547438
H       1.571603   -1.792892    3.898839
H       0.077414   -0.846144    3.721792
H       1.219551   -2.794033    1.648932
H      -1.427625   -2.026201    2.155200
