11

O       0.012929    1.376640    0.356028
C       0.013096    0.015371   -0.039181
C      -1.399537   -0.469513    0.043756
N      -1.715564   -1.709896    0.297816
O      -3.081264   -1.762383    0.258420
N      -3.618673   -0.536086   -0.011613
C      -2.602594    0.268654   -0.147494
H       0.897007    1.729573    0.219513
H       0.373273   -0.101405   -1.073532
H       0.647424   -0.611249    0.602417
H      -2.733283    1.317286   -0.358559
