18

O       1.029567    1.036494    0.390227
C       0.423319   -0.177200    0.135915
C       0.484685   -1.062788   -1.150760
C      -0.522803   -1.754700   -0.186109
C       0.501496   -1.505409    0.958493
C      -1.117895   -0.333346    0.071702
C      -1.981847   -0.018984    1.298659
C      -3.341327   -0.537463    1.151628
N      -4.409999   -0.956484    1.017369
H       1.985110    0.914004    0.389600
H       0.075123   -0.628678   -2.066045
H       1.420699   -1.597044   -1.332331
H      -1.080720   -2.667226   -0.376985
H       1.439946   -2.061920    0.887979
H       0.135237   -1.497778    1.985880
H      -1.572098    0.120240   -0.814570
H      -1.558367   -0.423056    2.222285
H      -2.036559    1.067825    1.431379
