17

C       0.004500    1.501079   -0.028120
C      -0.042080   -0.032170    0.023821
C      -1.466188   -0.566873   -0.049596
O       0.719714   -0.605671   -1.057067
C       2.011708   -0.825190   -0.577496
O       1.903626   -1.052690    0.830597
C       0.707581   -0.549311    1.246573
N       0.287512   -0.509334    2.433892
H       1.034009    1.871014   -0.001523
H      -0.466726    1.855269   -0.949039
H      -0.526536    1.918126    0.831193
H      -1.966672   -0.190605   -0.946225
H      -1.461038   -1.658780   -0.082389
H      -2.021653   -0.246640    0.834649
H       2.432723   -1.716071   -1.052065
H       2.674099    0.040543   -0.738108
H       0.973578   -0.896997    3.082737
