13

C       0.007465    1.475035    0.024804
C      -0.009337   -0.025271    0.018052
C      -0.115876   -0.772238    1.325424
O      -0.121593   -2.166866    1.187624
N       0.060462   -0.753740   -1.025806
O       0.157286   -0.003363   -2.202899
H       0.927248    1.847958   -0.436755
H      -0.824089    1.868102   -0.568596
H      -0.064543    1.867518    1.041744
H       0.722378   -0.453086    1.968790
H      -1.033092   -0.432894    1.837285
H      -0.052498   -2.340544    0.238347
H       0.200281   -0.684875   -2.882116
