21

C       0.049255    1.465849   -0.089548
C      -0.002753   -0.027598    0.002852
O       0.696132   -0.822178   -1.039457
C       0.097065   -1.815984   -0.129925
C       0.600117   -0.978180    1.081120
C      -0.095721   -1.096247    2.436423
C      -1.502238   -1.692643    2.271532
C      -2.202387   -1.109720    1.034136
C      -1.221671   -0.989833   -0.131540
H       1.084472    1.818304   -0.046067
H      -0.395363    1.809170   -1.028821
H      -0.504094    1.919387    0.739485
H       0.261805   -2.867790   -0.367307
H       1.689548   -0.911901    1.136106
H       0.499586   -1.716990    3.115175
H      -0.147543   -0.101737    2.900696
H      -1.403526   -2.776743    2.133652
H      -2.103992   -1.546963    3.174149
H      -3.052757   -1.739709    0.750584
H      -2.619488   -0.117543    1.255252
H      -1.693372   -0.933518   -1.115716
