19

C      -0.133484    1.529405   -0.094779
C      -0.002478    0.016093   -0.001171
O       0.689757   -0.425666   -1.164724
C       0.679965   -1.831081   -1.322073
C       0.964325   -2.574107   -0.047990
C       0.990614   -1.964846    1.135481
C       0.734789   -0.478779    1.263416
C       2.079475    0.215498    1.449174
O       2.473781    0.675085    2.489838
H       0.848473    2.008372   -0.151168
H      -0.694408    1.802221   -0.992197
H      -0.658662    1.922712    0.780634
H      -1.008612   -0.435115    0.015197
H      -0.288973   -2.166540   -1.736055
H       1.439728   -2.059041   -2.079010
H       1.123818   -3.645637   -0.133568
H       1.214241   -2.512860    2.045685
H       0.135802   -0.271196    2.156623
H       2.701667    0.233405    0.528337
