25

C       0.026984    1.548890    0.037162
C      -0.011761    0.011632    0.054049
C       0.729811   -0.502472    1.297380
C      -1.458253   -0.546540   -0.040324
C      -2.203208   -0.008651   -1.270670
C      -1.513643   -2.107367   -0.016820
C      -2.148615   -2.452465    1.342352
C      -2.956975   -1.187043    1.636980
O      -2.162831   -0.120075    1.145951
H       1.051904    1.904109    0.184724
H      -0.329511    1.966020   -0.908029
H      -0.591168    1.954651    0.843818
H       0.515353   -0.355191   -0.838187
H       0.222963   -0.168472    2.207088
H       0.796283   -1.593904    1.327794
H       1.752803   -0.113618    1.316243
H      -1.677217   -0.273900   -2.194809
H      -3.207447   -0.441019   -1.322682
H      -2.309850    1.076787   -1.229769
H      -2.144377   -2.468282   -0.834711
H      -0.528748   -2.559910   -0.150017
H      -2.763100   -3.356104    1.312264
H      -1.380308   -2.589925    2.109008
H      -3.934047   -1.220234    1.126376
H      -3.138415   -1.010216    2.701289
