17

C       0.067112    1.320639    0.275092
O      -0.000166   -0.076324   -0.040326
C       0.654854   -0.444988   -1.160140
O       1.263177    0.310666   -1.867354
C       0.482661   -1.949148   -1.366170
C       1.191030   -2.475674   -2.519732
C       1.776417   -2.934211   -3.464027
C       2.479018   -3.456422   -4.628447
O       3.344136   -4.514410   -4.231951
H       1.104219    1.632673    0.421086
H      -0.369330    1.918274   -0.529156
H      -0.502770    1.444486    1.195885
H       0.810155   -2.449507   -0.446395
H      -0.594480   -2.148908   -1.433994
H       1.740767   -3.802937   -5.370224
H       3.041996   -2.634494   -5.099602
H       3.806585   -4.815721   -5.020634
