21

O      -0.172156    1.463605   -0.146137
C       0.023738    0.053029   -0.020941
C      -1.352024   -0.551339    0.051692
C      -2.135109   -0.392327    1.389370
C      -2.242058   -1.941542    1.517058
C      -1.699910   -2.089389    0.078007
C      -2.771086   -1.831715   -1.027153
C      -2.234967   -0.392602   -1.211071
O      -3.216755    0.614889   -1.229124
H       0.687812    1.887454   -0.222591
H       0.568492   -0.345136   -0.892779
H       0.613479   -0.186896    0.878263
H      -1.573870    0.103385    2.184544
H      -3.086892    0.127410    1.262064
H      -1.551815   -2.342435    2.265059
H      -3.234558   -2.361692    1.705896
H      -0.969890   -2.873501   -0.129621
H      -2.716387   -2.468655   -1.912080
H      -3.796046   -1.851063   -0.646356
H      -1.589245   -0.327326   -2.101114
H      -2.749585    1.455168   -1.151473
