16

O       0.058662    1.350562   -0.331956
C       0.034979    0.021460    0.163631
C      -1.365501   -0.521080    0.208541
C      -2.426695    0.073714    1.115953
O      -3.514062   -0.844602    1.098230
C      -3.042156   -2.139752    0.748342
C      -1.767688   -1.909462   -0.033905
O      -1.920310   -0.924436   -1.062231
H      -0.311745    1.325299   -1.221613
H       0.663869   -0.649673   -0.438941
H       0.456983    0.066313    1.173401
H      -2.012140    0.196328    2.130104
H      -2.796919    1.043676    0.772603
H      -2.819189   -2.752585    1.637867
H      -3.826666   -2.637712    0.169508
H      -1.071529   -2.719883   -0.233729
