21

C      -0.223117    1.502509   -0.020473
C       0.005220    0.008288   -0.020358
C      -0.714293   -0.843076    0.994944
C       0.788793   -0.694443    1.078902
C       1.619151   -1.790023    0.433720
C       2.892657   -2.250117    1.087018
O       0.821373   -2.813947   -0.195861
C       1.363715   -1.769169   -1.018615
C       0.393111   -0.648316   -1.357756
H       0.642152    2.041142   -0.425227
H      -1.094666    1.771807   -0.629354
H      -0.404509    1.873890    0.993260
H      -1.304328   -0.318368    1.739911
H      -1.097588   -1.812023    0.700499
H       1.230279   -0.144255    1.902696
H       2.685196   -2.712679    2.058148
H       3.402179   -2.986548    0.460733
H       3.568869   -1.405160    1.256171
H       2.087939   -2.103200   -1.759950
H      -0.472555   -1.013411   -1.921832
H       0.907146    0.084268   -1.992310
