22

C       0.273654    1.683788    0.084822
C       0.405590    0.163457   -0.056406
C       0.570522   -0.557171    1.282943
C      -0.645094   -0.445322    2.245418
C      -0.629603   -1.758859    2.992852
C       0.189688   -2.643057    2.426303
C       0.849749   -2.073603    1.220407
C       0.981408   -2.849652   -0.046962
N       2.158361   -2.611728    0.807960
H       1.150377    2.111291    0.584246
H       0.179880    2.164773   -0.893548
H      -0.607712    1.955891    0.674286
H      -0.472390   -0.237514   -0.578797
H       1.270878   -0.056946   -0.696926
H       1.433441   -0.114281    1.802549
H      -0.575563    0.424064    2.908329
H      -1.585179   -0.330297    1.684804
H      -1.249076   -1.943040    3.863366
H       0.365322   -3.663348    2.746105
H       0.646657   -3.883365   -0.084281
H       0.901000   -2.318510   -0.991053
H       2.721690   -1.862002    0.409675
