20

C      -0.009686    1.577490   -0.020430
C       0.034685    0.048237    0.058336
C       0.656356   -0.384670    1.395772
O      -1.332640   -0.371171    0.005597
C       0.769324   -0.493981   -1.181768
C       2.071688   -1.273253   -1.134877
C       0.782705   -1.958236   -1.506850
O       0.144056   -2.805671   -0.584233
H       1.001237    1.995680   -0.035543
H      -0.534177    1.892899   -0.926931
H      -0.545690    1.984492    0.841519
H       0.037978    0.002376    2.210487
H       0.691580   -1.473227    1.480879
H       1.670924    0.008274    1.517132
H      -1.321312   -1.336211   -0.004910
H       0.641102    0.145053   -2.050962
H       2.814725   -1.102267   -1.906699
H       2.481161   -1.503605   -0.158012
H       0.634020   -2.247810   -2.546164
H       0.626211   -3.637531   -0.540242
