18

O      -0.596617    1.031872    0.151859
C      -0.062103   -0.278355    0.181325
C       0.484367   -0.659952   -1.140025
N       0.939381   -0.935574   -2.166173
C       1.000040   -0.464171    1.273664
C       0.397222   -0.371574    2.704230
C       0.397039   -1.916267    2.783798
O      -0.909323   -2.385472    2.490778
C       1.357901   -1.952067    1.559435
H       0.117472    1.644724   -0.059384
H      -0.908096   -0.936775    0.403067
H       1.848022    0.194478    1.061078
H       1.088725    0.081264    3.417830
H      -0.580589    0.104478    2.795593
H       0.774981   -2.363593    3.711648
H      -0.861684   -3.337842    2.354275
H       1.123744   -2.681478    0.778380
H       2.403994   -2.073858    1.850756
