15

O       0.692817    0.967483    0.640396
C       0.214006   -0.188966    0.035830
C      -1.316254   -0.483309    0.101212
O      -2.072133    0.723874    0.081039
C      -2.507778    0.979404   -1.257874
O      -2.407248   -0.224752   -1.977858
C      -1.342884   -0.929209   -1.384845
C       0.084226   -0.275870   -1.517313
O       0.703958    0.156489   -2.439854
H      -0.014891    1.622334    0.570581
H       0.794144   -1.044886    0.404997
H      -1.685885   -1.140939    0.887811
H      -3.554182    1.296960   -1.243474
H      -1.875418    1.760577   -1.707605
H      -1.420965   -1.989387   -1.626209
