19

C      -0.018574    1.443186    0.056848
C       0.008819   -0.041970   -0.020361
C       0.051274   -0.904507   -1.041438
C       0.057070   -2.255262   -0.312130
O      -0.965258   -2.034318    0.724833
C      -0.009142   -1.020962    1.177779
C       1.139967   -2.008563    0.791578
C       1.387761   -3.157636    1.748472
O       2.151635   -4.131219    1.043727
H       0.834616    1.830481    0.628612
H       0.009873    1.895930   -0.938100
H      -0.922862    1.798819    0.567044
H       0.081639   -0.732813   -2.107541
H      -0.041522   -3.190881   -0.859176
H      -0.184267   -0.645721    2.187336
H       2.081550   -1.567754    0.454792
H       1.936321   -2.787543    2.630740
H       0.426898   -3.563808    2.089207
H       2.265590   -4.893933    1.617926
