17

C      -0.035375    1.450985   -0.031685
N      -0.008227   -0.000299    0.056111
N      -0.035304   -0.625320   -1.157586
N      -0.016857   -1.878871   -1.239086
C       0.033044   -2.723445   -0.081558
N       0.050561   -3.997288   -0.204458
C       0.061169   -2.048479    1.195219
C       0.040357   -0.700740    1.250756
C       0.066676    0.084501    2.528396
H       0.861669    1.894700    0.411366
H      -0.071965    1.698693   -1.091814
H      -0.918119    1.864720    0.465778
H       0.023684   -4.229307   -1.200237
H       0.099018   -2.641637    2.099840
H       0.104316   -0.601300    3.376104
H       0.940424    0.743104    2.580947
H      -0.823674    0.713611    2.635412
