16

C      -0.189544    1.654245    0.415470
C      -0.076201    0.194875    0.062015
O       1.177648   -0.273801   -0.431931
C       0.768631   -0.770820    0.838803
C       1.544387   -0.342707    2.046688
O       2.315287    0.581025    2.080517
C      -1.307137   -0.404272   -0.613416
N      -1.021075   -1.366413   -1.529648
O      -2.427474   -0.042726   -0.313546
H       0.682548    1.988841    0.976544
H      -0.264536    2.245025   -0.502943
H      -1.103090    1.816952    0.990619
H       0.451921   -1.814495    0.848485
H       1.334141   -0.964099    2.945269
H      -0.070986   -1.488871   -1.839456
H      -1.779414   -1.752858   -2.066976
