15

C      -0.063626    1.533720   -0.022903
C       0.050581    0.028069   -0.008207
C       1.340040   -0.660684   -0.250533
O       2.438235    0.136399   -0.468127
C       0.722833   -0.695466    1.194483
C       1.383584    0.093586    2.196933
N       1.934665    0.728259    2.990966
C       0.145587   -1.935354    1.635609
N      -0.324601   -2.947378    1.940143
H       0.848230    2.011280    0.336741
H      -0.244088    1.874140   -1.047038
H      -0.901112    1.860917    0.598936
H      -0.826351   -0.508392   -0.356947
H       1.328411   -1.626789   -0.752409
H       3.233540   -0.321587   -0.172712
