16

C      -0.102382    1.557754    0.018919
C       0.054673    0.037197   -0.001452
C       0.818243   -0.502591   -1.235372
C       1.906414   -1.366179   -0.623828
O       2.710887   -2.094361   -1.152458
C       1.772695   -1.150716    0.861406
N       2.694073   -1.722008    1.678221
N       0.780925   -0.413478    1.203528
H       0.876990    2.046269   -0.029910
H      -0.701659    1.900097   -0.831063
H      -0.592343    1.875095    0.943097
H      -0.947537   -0.409522    0.039479
H       0.204129   -1.085180   -1.927297
H       1.285733    0.299850   -1.817208
H       3.264987   -2.441696    1.263087
H       2.493008   -1.790197    2.661939
