15

N      -0.022731    1.400234    0.089009
C      -0.051030    0.008755    0.043821
C      -1.126569   -0.839987   -0.071835
N      -0.584088   -2.119394    0.015151
C      -1.306437   -3.366471   -0.065840
C      -1.855517   -3.634317   -1.405171
N      -2.298821   -3.849284   -2.449408
C       0.758233   -1.969550    0.173028
N       1.113898   -0.705914    0.198121
H       0.905342    1.750385   -0.109007
H      -0.709574    1.846426   -0.502809
H      -2.182275   -0.678354   -0.205776
H      -0.627335   -4.179609    0.206629
H      -2.131567   -3.377935    0.656050
H       1.420834   -2.817739    0.266332
