15

C       0.000687    1.528052    0.181119
N       1.334746    1.961085   -0.264208
C       2.336124    1.137133   -0.682359
N       2.294212   -0.151916   -0.761391
C       1.076351   -0.640387   -0.361581
C      -0.025983    0.032748    0.081626
C      -1.014476   -0.959631    0.362676
C      -0.430858   -2.154336    0.066884
O       0.846906   -1.976700   -0.376984
H      -0.181116    1.878866    1.210229
H      -0.773319    1.999650   -0.446339
H       1.524893    2.949121   -0.260195
H       3.248103    1.656150   -0.970573
H      -2.018526   -0.815865    0.732141
H      -0.769780   -3.175316    0.113602
