27

C      -0.054410    1.611628   -0.105922
C      -0.012118    0.082710   -0.043326
C      -1.404922   -0.552207    0.004723
C      -1.391039   -2.081981    0.040225
C      -2.799812   -2.661803    0.200249
O      -0.799154   -2.526318   -1.178651
C      -0.177590   -3.808773   -1.150448
C      -0.224814   -4.350983   -2.575456
C       1.254893   -3.714044   -0.616604
H       0.953216    2.037970   -0.140559
H      -0.591498    1.956345   -0.996763
H      -0.563652    2.033581    0.768230
H       0.522317   -0.313403   -0.912720
H       0.559781   -0.231191    0.840678
H      -1.950087   -0.188868    0.885595
H      -1.984493   -0.237694   -0.873606
H      -0.770694   -2.406931    0.891654
H      -2.785217   -3.755843    0.193369
H      -3.248037   -2.340293    1.146171
H      -3.440932   -2.325106   -0.620625
H      -0.754484   -4.482800   -0.497967
H       0.310756   -3.677634   -3.252543
H       0.240694   -5.339715   -2.632227
H      -1.258846   -4.429073   -2.921466
H       1.859634   -3.075165   -1.268257
H       1.278979   -3.291214    0.392171
H       1.719322   -4.704950   -0.574882
