12

O      -0.097495    0.020383    0.236800
C       0.022518    1.202062    0.061173
C       1.345926    1.902295   -0.030415
N       2.491705    1.364267    0.061339
C       3.465374    2.456473   -0.090755
C       2.606359    3.733406   -0.295986
O       1.244362    3.243619   -0.231854
H      -0.843262    1.886099   -0.049748
H       4.097608    2.508710    0.801537
H       4.122356    2.245350   -0.940574
H       2.736031    4.482459    0.489255
H       2.751388    4.208990   -1.269410
