11

O      -0.049050    1.482110   -0.072407
C      -0.000320    0.085976   -0.058625
C       0.675418   -0.502818   -1.222514
C       1.253664   -0.989905   -2.156022
C       0.749926   -0.399432    1.195882
O       1.352771    0.366580    1.902696
C       0.700716   -1.838707    1.470680
N       0.622335   -2.969754    1.696774
H       0.671890    1.792316    0.496411
H      -1.028301   -0.302497   -0.006532
H       1.752489   -1.417615   -2.991458
