18

C      -0.210639    1.074921   -0.000089
O       0.873038    1.831465    0.505864
C       1.995594    0.974730    0.661028
C       2.398211    0.687532    2.129888
C       1.926360   -0.726595    2.423067
N       0.476313   -0.895253    2.221506
C       1.416626   -1.358136    1.177473
C       1.540197   -0.374587    0.023162
O       0.332907   -0.057425   -0.648220
H      -0.875784    0.770899    0.817510
H      -0.748103    1.675185   -0.743148
H       2.828384    1.430033    0.115212
H       3.486573    0.746446    2.238932
H       1.950483    1.427188    2.798955
H       2.416857   -1.311564    3.194753
H       0.145051   -1.698543    2.749417
H       1.506963   -2.422449    0.987413
H       2.243226   -0.753229   -0.724900
