14

O      -0.010814    1.380662    0.117123
C       0.039695    0.030815    0.037178
C       0.074854   -0.642579   -1.185105
C       0.125749   -2.031749   -1.138215
O       0.160846   -2.717300   -2.299641
N       0.142652   -2.745886   -0.014774
C       0.107975   -2.069104    1.135341
O       0.125413   -2.799899    2.268602
C       0.056028   -0.684520    1.233492
H      -0.017035    1.751406   -0.772058
H       0.063757   -0.124902   -2.136520
H       0.193335   -3.652611   -2.057216
H       0.161915   -3.724926    1.990421
H       0.029519   -0.185035    2.191270
