15

C      -0.206637    1.317284    0.100674
C       1.381927    1.254860    0.058347
C       2.179718    0.092793    0.735920
C       1.546785   -1.287576    0.502456
C       0.102563   -1.091860    0.298894
C      -0.040119   -0.058698   -0.563695
C       1.341544    0.288037   -1.141442
N       2.365484   -0.649707   -0.554769
H      -0.722529    1.341841    1.062198
H      -0.546234    2.144431   -0.532561
H       1.932500    2.196797    0.018671
H       2.999793    0.221495    1.433389
H       2.003485   -2.141915    0.992138
H      -0.597473   -1.305312    1.100646
H       1.467400    0.569738   -2.184440
