18

C      -0.049477    1.555280    0.069651
C       0.005060    0.018346   -0.006550
C       0.685537   -0.469962   -1.200554
C       1.252565   -0.852654   -2.195842
C       1.912823   -1.327502   -3.354661
C       2.474076   -0.554056   -4.357856
N       3.009534   -1.397283   -5.290671
C       2.808240   -2.703603   -4.914869
C       2.132803   -2.696555   -3.721870
H       0.958395    1.979348    0.079203
H      -0.579947    1.967987   -0.792905
H      -0.567339    1.875321    0.978953
H       0.506951   -0.372054    0.889079
H      -1.016772   -0.383284    0.025315
H       2.525816    0.516653   -4.465800
H       3.480855   -1.102838   -6.127551
H       3.161369   -3.518214   -5.525993
H       1.819625   -3.558903   -3.155318
