20

C      -0.825315    1.004944    0.366185
N      -0.020203   -0.204334    0.208332
C       1.209769   -0.122658   -0.536719
C       1.251088   -0.358897    0.946848
C       1.803828    0.724665    1.824270
O       1.802342    1.897455    1.501022
C       2.361402    0.262405    3.157348
C       2.933922    1.392621    3.998153
O       3.423678    0.814029    5.198987
H      -0.241444    1.927042    0.458723
H      -1.480448    1.078831   -0.507301
H      -1.456931    0.894745    1.253269
H       1.425989   -0.951104   -1.206789
H       1.551839    0.858011   -0.863188
H       1.407055   -1.370141    1.315006
H       1.568958   -0.258078    3.712272
H       3.131655   -0.499772    2.975794
H       3.729202    1.903067    3.436429
H       2.150770    2.138697    4.193624
H       3.786578    1.519113    5.742644
