18

C      -0.153827    1.434627   -0.063573
N       0.084404    0.001113    0.016942
C       1.457452   -0.494131   -0.206677
C       0.814503   -0.524040    1.119502
C       1.150901    0.129513    2.495364
O      -0.089010   -0.476489    2.984464
C       0.308385   -1.599220    2.126619
C       1.631384   -2.031859    2.766582
C       2.211104   -0.851472    3.011616
H       0.704181    2.040914    0.271005
H      -0.379755    1.705232   -1.099204
H      -1.018220    1.687790    0.557330
H       1.546341   -1.385613   -0.822280
H       2.245479    0.244827   -0.356513
H       1.241856    1.198984    2.676439
H      -0.482676   -2.312820    1.905732
H       1.986858   -3.039928    2.919052
H       3.178223   -0.608793    3.426116
