18

C       0.169323    1.112305   -0.302153
O       0.304770   -0.256057    0.050218
C       0.668595   -0.538950    1.387511
C       0.731931   -2.074454    1.496487
C       2.109705   -2.365673    0.891846
O       2.925429   -1.226640    1.181554
C       2.139337   -0.176683    1.710545
C      -0.277514    0.070415    2.341986
N      -1.017222    0.564252    3.079892
H       1.118158    1.658629   -0.226244
H      -0.158176    1.123806   -1.343196
H      -0.582957    1.615618    0.318294
H       0.685569   -2.371068    2.547196
H      -0.094236   -2.537429    0.955998
H       2.575541   -3.257469    1.323430
H       2.044182   -2.495748   -0.194982
H       2.443074    0.769676    1.253577
H       2.270562   -0.089289    2.798940
