14

O       0.099416    1.303058    0.203893
C       0.053587   -0.050094   -0.140235
C      -1.388955   -0.545943   -0.161995
O      -2.306137    0.216815    0.070972
N      -1.571234   -1.859305   -0.550131
C      -1.106997   -3.033467    0.169009
C      -2.569929   -2.732795    0.018817
H      -0.830311    1.568347    0.293516
H       0.495055   -0.233876   -1.132187
H       0.629545   -0.658105    0.575682
H      -0.643085   -3.808188   -0.434500
H      -0.661952   -2.883999    1.149747
H      -3.107988   -2.364366    0.887681
H      -3.164328   -3.297766   -0.692707
