21

C      -0.003312    1.504547   -0.207352
C      -0.015480    0.053525   -0.088792
C      -0.030106   -1.148524    0.004989
C      -0.018972   -2.575703    0.140050
C      -0.351051   -3.443644   -1.066660
C      -1.298644   -3.414021    0.099982
C      -1.177792   -4.512339    1.144095
C       0.338099   -4.624475    1.429021
C       0.901584   -3.206354    1.190962
H       0.709786    1.952968    0.493733
H       0.283479    1.823711   -1.215972
H      -0.988492    1.934458    0.007421
H      -0.654189   -2.915736   -1.963028
H       0.248177   -4.329693   -1.251798
H      -2.255105   -2.922339   -0.035482
H      -1.716979   -4.207525    2.048971
H      -1.609086   -5.465066    0.817159
H       0.546221   -4.988331    2.438465
H       0.800208   -5.337845    0.739640
H       1.951038   -3.217112    0.879377
H       0.841093   -2.606151    2.105491
