15

O       0.038368   -0.049368   -0.399658
C      -0.004062    1.064564    0.048000
N      -1.174851    1.820851   -0.025690
C      -1.602090    2.956333    0.665914
N      -0.949663    3.944409    1.112341
C       0.446581    4.077449    0.869982
C       1.471600    3.707326    1.918104
C       1.413844    2.946897    0.623826
O       1.035481    1.593482    0.724623
H      -1.913200    1.264861   -0.434423
H      -2.685399    2.958631    0.794370
H       0.663912    4.993101    0.323658
H       2.302058    4.377177    2.107555
H       1.097915    3.171610    2.783555
H       2.201554    3.081049   -0.112242
