16

C      -0.169104    1.474519   -0.051691
C       1.077642    0.681184    0.345515
C       0.731247   -0.605151    1.101605
N       1.947605   -1.285276    1.535563
C       2.147938   -2.475409    1.248981
O       1.366256   -3.373613    0.543547
N       2.066058   -4.578566    0.506109
N       3.137103   -4.462046    1.107611
O       3.276201   -3.179563    1.610430
H      -0.751436    1.767583    0.828939
H       0.101186    2.387633   -0.589711
H      -0.826513    0.887805   -0.702919
H       1.659936    0.422074   -0.546862
H       1.733825    1.289535    0.977557
H       0.159625   -0.349195    2.002782
H       0.088161   -1.244671    0.481214
