21

C      -0.061220    1.554565    0.014382
C       0.002138    0.056278    0.005447
C       0.647782   -0.864009   -1.103409
C       1.533059   -1.520856   -0.016864
C       0.667125   -0.876289    1.092389
C      -0.697079   -1.586571    1.296202
C      -1.237049   -0.912087    0.010945
O      -2.537045   -0.391997    0.025284
C      -0.719864   -1.572116   -1.291074
H       0.942395    1.995740    0.007034
H      -0.600399    1.932954   -0.861311
H      -0.583148    1.923178    0.904578
H       1.139114   -0.485710   -2.000881
H       1.623949   -2.612867   -0.023777
H       2.538832   -1.089713   -0.023310
H       1.174238   -0.507999    1.985234
H      -0.705092   -2.680825    1.356207
H      -1.221052   -1.173397    2.163496
H      -3.159457   -1.128244    0.026319
H      -1.258995   -1.149347   -2.144341
H      -0.729028   -2.665633   -1.363132
