17

C      -0.023178    1.535621    0.019480
C      -0.027809   -0.012543   -0.027335
C       0.780632   -0.562476   -1.239465
C       2.003867   -1.275609   -0.641535
O       2.912481   -1.764693   -1.268847
C       1.844359   -1.244579    0.831896
C       0.740272   -0.574014    1.167540
C      -1.408535   -0.500881   -0.004870
C      -2.544103   -0.894284    0.027131
H       1.005038    1.908765   -0.005559
H      -0.567798    1.941084   -0.837363
H      -0.504147    1.898843    0.931927
H       0.200730   -1.281223   -1.823481
H       1.101756    0.228150   -1.922402
H       2.555895   -1.707440    1.503598
H       0.379123   -0.398303    2.175164
H      -3.545592   -1.247365    0.047997
