19

C      -0.478170    1.431324   -0.089257
C       0.001498   -0.000332   -0.051871
C      -1.027908   -1.109949    0.299467
C      -0.218191   -1.360958    1.602300
N       0.867218   -0.431313    1.130843
C       1.773366   -1.067853    0.236116
N       2.617697   -1.968405    0.489532
C       1.159430   -0.422978   -1.012872
O       0.938923   -1.341862   -2.049867
H       0.366093    2.128135   -0.112302
H      -1.095095    1.607621   -0.978714
H      -1.085063    1.667935    0.790665
H      -2.057145   -0.768436    0.427812
H      -1.011318   -1.943205   -0.406805
H      -0.692427   -0.977212    2.508744
H       0.144131   -2.374861    1.783047
H       3.073422   -2.272769   -0.372227
H       1.718171    0.458971   -1.358816
H       0.690040   -0.858969   -2.844049
