17

N      -0.095862    1.294182   -0.095767
C       0.160794    0.068620   -0.255096
C      -0.622619   -1.031950    0.404485
C      -1.037967   -2.152526   -0.579286
C      -0.010714   -2.323756   -1.719378
C       1.351140   -1.724054   -1.344564
O       1.224892   -0.333543   -1.040379
C       2.013624   -2.458949   -0.246761
N       2.532450   -3.049981    0.599735
H       0.572721    1.870579   -0.611411
H       0.011624   -1.460011    1.189733
H      -1.484488   -0.581207    0.895617
H      -1.150058   -3.086313   -0.022782
H      -2.014871   -1.923342   -1.012643
H       0.114617   -3.372970   -1.999902
H      -0.336410   -1.783740   -2.613830
H       2.026847   -1.760473   -2.204335
