22

C       0.036532    1.687231    0.056148
C       0.124794    0.167589   -0.012140
C       0.849503   -0.547250   -1.144741
C       0.361710   -0.762983   -2.544982
C       2.285097   -0.709939   -0.747586
C       2.499551   -0.127315    0.633785
C       1.071122   -0.650506    0.906735
C       0.644064   -1.120294    2.267327
N       1.252187   -1.693319   -0.256464
H       1.013445    2.163020   -0.068803
H      -0.619788    2.071687   -0.732273
H      -0.379001    2.015609    1.015473
H      -0.879147   -0.268690    0.072124
H       0.409368    0.164551   -3.127061
H       0.971740   -1.514171   -3.056366
H      -0.675845   -1.114203   -2.549049
H       3.039609   -1.012542   -1.466219
H       3.235739   -0.714034    1.191390
H       2.714271    0.939099    0.755838
H       0.560940   -0.273950    2.959610
H      -0.329256   -1.619476    2.221219
H       1.368747   -1.827855    2.682791
