17

C       0.006188    1.519788    0.009468
C       0.046997    0.014749    0.024966
C      -0.835650   -0.803605    0.910305
C       0.693123   -0.799929    1.131950
C       1.451436   -1.855255    0.413157
O       2.234611   -2.683272    0.814399
C       1.084481   -1.640170   -1.049591
N       1.523861   -2.545455   -1.956769
N       0.335179   -0.618661   -1.261526
H       0.969204    1.930813   -0.309203
H      -0.756791    1.867184   -0.694318
H      -0.229823    1.917815    1.000409
H      -1.408298   -0.310328    1.689911
H      -1.296941   -1.693836    0.495504
H       1.080351   -0.394510    2.057123
H       2.274904   -3.145442   -1.652989
H       1.463094   -2.323284   -2.936576
