16

O      -0.084792    1.411087    0.049550
C       0.021821    0.001291    0.004281
C       0.747300   -0.551759    1.239766
O       0.650515   -1.974481    1.277258
C      -0.692231   -2.376773    1.266003
O      -1.372011   -1.978884    0.108092
C      -1.402411   -0.557664   -0.005067
C      -0.725728   -3.849292    1.330628
N      -0.774400   -4.997901    1.421384
H       0.770615    1.793059   -0.169235
H       0.539523   -0.345274   -0.900910
H       1.814675   -0.316480    1.228749
H       0.299755   -0.107394    2.143040
H      -1.207271   -1.966560    2.156977
H      -1.969577   -0.113238    0.828162
H      -1.917354   -0.327246   -0.938785
