23

C       0.671644    0.037767   -1.257066
C      -0.029917    0.081147    0.108668
C       0.064533    1.478839    0.741783
C      -1.473989   -0.412609    0.026409
C      -2.459573    0.455935   -0.742001
C      -1.815732   -1.897845   -0.095631
C      -0.913681   -2.747931    0.791303
O      -1.169107   -1.898014    1.942364
C      -2.110846   -1.134538    1.181823
H       1.729931    0.301422   -1.158956
H       0.613179   -0.960406   -1.703361
H       0.223613    0.746005   -1.963102
H       0.498782   -0.599886    0.782958
H       1.111116    1.751124    0.913206
H      -0.370678    2.250087    0.097189
H      -0.452071    1.511460    1.706384
H      -2.180713    0.541909   -1.797555
H      -3.467555    0.029257   -0.705596
H      -2.515753    1.465802   -0.324862
H      -2.485610   -2.279400   -0.855393
H      -1.310544   -3.754020    0.968686
H       0.152752   -2.812653    0.545335
H      -3.034082   -0.844899    1.673364
