20

C      -0.054286    1.438751   -0.133826
N      -0.007921   -0.014992   -0.126903
C      -1.206535   -0.778529    0.418552
C      -0.721012   -2.201584    0.120826
C       0.547093   -2.159007    0.541187
C       0.671946   -0.715427    1.041142
C      -0.655575   -0.615694    1.888045
C      -0.976437    0.627794    2.729681
O      -1.386313    0.153103    4.008732
H       0.945071    1.812590   -0.383991
H      -0.728665    1.756625   -0.937079
H      -0.375626    1.948161    0.787201
H      -2.205948   -0.466564    0.111840
H      -1.293794   -3.002884   -0.321849
H       1.318010   -2.915183    0.543907
H       1.635839   -0.337522    1.385115
H      -0.841422   -1.474957    2.536079
H      -0.094832    1.279305    2.825188
H      -1.776483    1.224086    2.265872
H      -1.594529    0.915877    4.557037
