18

C      -0.208381    1.598233    0.030614
C       0.044708    0.104812    0.079507
C       1.343529   -0.597940   -0.236342
C       2.702239    0.112363   -0.130573
C       2.922642    0.404631    1.350914
O       2.008960    1.347366    1.923521
C       1.745299   -0.053405    2.108646
C       0.748873   -0.688063    1.168463
H       0.671467    2.182794    0.286762
H      -0.542325    1.878156   -0.975399
H      -1.004036    1.877527    0.730143
H      -0.806166   -0.454713   -0.308024
H       1.295891   -1.446722   -0.910877
H       3.492096   -0.559874   -0.483217
H       2.766733    1.025917   -0.732399
H       3.931354    0.443645    1.757162
H       1.796754   -0.393569    3.139524
H       0.273965   -1.595668    1.525378
