20

C       2.887899   -0.524658    0.132149
N       1.646057   -1.243026    0.384314
C       1.602337   -2.188166    1.486908
C       0.829481   -0.909549    1.545329
C       1.215924    0.200514    2.513465
O       1.004390    1.456380    1.926231
C       0.407831    0.096275    3.814942
C       0.506934   -1.166674    4.635222
O      -0.287871    1.034738    4.141577
H       3.525662   -0.388006    1.019557
H       3.465713   -1.083814   -0.610139
H       2.652806    0.461867   -0.275161
H       1.102478   -3.134890    1.297947
H       2.482464   -2.262609    2.127398
H      -0.239230   -0.928126    1.332086
H       2.276146    0.084332    2.794005
H       0.385707    1.912586    2.521357
H      -0.016151   -1.980479    4.121069
H       1.548662   -1.480907    4.750634
H       0.049881   -1.007393    5.612588
