23

O      -0.219606    1.501316    0.213152
C       0.016786    0.105814    0.025544
C       0.898697   -0.453857    1.150099
C       1.450094   -1.873657    0.920042
C       0.421294   -2.954739    0.555394
C      -0.272248   -2.753633   -0.824758
C      -1.454294   -2.053409   -0.089896
C      -0.976763   -2.764151    1.211774
C      -1.381461   -0.521858   -0.059826
H       0.633758    1.946112    0.222676
H       0.538049   -0.049157   -0.933862
H       1.755048    0.222617    1.278694
H       0.336551   -0.403198    2.090085
H       2.212381   -1.842405    0.129219
H       1.976414   -2.178742    1.833068
H       0.880892   -3.937329    0.698066
H       0.267188   -2.190509   -1.591983
H      -0.580807   -3.710132   -1.255991
H      -2.453353   -2.343417   -0.427445
H      -1.486507   -3.721863    1.349207
H      -1.036019   -2.206394    2.150847
H      -1.959314   -0.147936    0.795398
H      -1.863661   -0.114990   -0.956223
