19

O       0.547270    0.254080    0.502971
C      -0.280543    0.218817   -0.655968
C      -1.675147   -0.256715   -0.273558
O      -2.266753    0.635372    0.645149
C      -2.650882   -0.603262   -1.434926
C      -2.644140   -2.094996   -1.014102
C      -1.430151   -2.926271   -1.480128
O      -0.653850   -2.560587   -0.307269
C      -1.737704   -1.752561    0.196269
H       0.783382   -0.662142    0.691203
H      -0.344695    1.246089   -1.030361
H       0.154230   -0.411329   -1.439482
H      -1.568388    0.854288    1.277990
H      -3.618019   -0.124166   -1.271192
H      -2.306568   -0.375523   -2.448412
H      -3.598505   -2.613123   -0.942234
H      -1.594060   -4.009322   -1.513449
H      -0.950863   -2.607063   -2.414613
H      -1.964822   -1.933390    1.249821
