15

O       0.594774    0.370054    0.763406
C      -0.126961    0.203505   -0.443406
C      -1.458988   -0.465751   -0.241509
C      -2.279564   -0.503622    1.011383
C      -1.917353   -1.799075    0.302153
C      -2.720946   -1.897888   -0.986620
O      -2.304678   -0.563237   -1.395645
H       0.136190    1.034984    1.286834
H      -0.299411    1.160608   -0.961778
H       0.503756   -0.405924   -1.098992
H      -1.731856   -0.349077    1.935372
H      -3.300405   -0.129864    1.000550
H      -1.361394   -2.594510    0.778817
H      -2.341168   -2.647981   -1.689347
H      -3.811115   -1.984314   -0.905964
