15

O       0.265478    1.418192   -0.004866
C       0.133621    0.028612    0.030791
C       0.241671   -0.709094    1.423240
C      -1.187235   -1.212526    1.228264
N      -2.039618   -0.043048    1.061221
C      -1.290017   -0.527895   -0.124588
C      -2.020289   -1.052113   -1.285131
O      -3.191928   -1.362012   -1.248149
H      -0.453320    1.769059    0.537528
H       0.829440   -0.384377   -0.704050
H       0.991923   -1.501973    1.422570
H       0.389289   -0.056223    2.286651
H      -1.605168   -2.177776    1.486780
H      -3.001042   -0.359882    0.920633
H      -1.417157   -1.171439   -2.209754
