19

C       0.022474    1.414289   -0.015509
O       0.037342   -0.001428   -0.009350
C       0.714838   -0.545403    1.059422
C       2.243862   -0.497999    1.257729
C       1.977259   -1.667055    2.242502
C       1.217645   -0.953282    3.382569
C       0.004042   -0.630600    2.494678
O      -0.478270   -1.968955    2.173814
C       0.690431   -2.053698    1.358188
H       1.036821    1.831241   -0.089272
H      -0.552777    1.723817   -0.890389
H      -0.457155    1.820011    0.886880
H       2.747278   -0.818391    0.340977
H       2.724216    0.399390    1.657129
H       2.749574   -2.390846    2.489358
H       0.925934   -1.598860    4.213570
H       1.754703   -0.079610    3.761873
H      -0.777087    0.050502    2.829153
H       0.722956   -2.868497    0.637435
