22

C       0.140617    1.650816   -0.048683
C       0.057120    0.132771    0.020375
C       0.937206   -0.726053   -0.939524
C       1.300125   -1.685036    0.240730
C       0.852523   -3.124108    0.109227
C       2.690566   -1.391759    0.858617
C       2.070209   -0.240159    1.704543
C       0.643413   -0.643393    1.228639
H       1.173224    2.006467    0.032710
H      -0.256033    2.019790   -1.001399
H      -0.437911    2.119609    0.755614
H      -0.990696   -0.167796   -0.096572
H       0.405713   -1.190203   -1.775066
H       1.802285   -0.190626   -1.345540
H       1.435765   -3.648839   -0.658439
H       0.978721   -3.669831    1.051374
H      -0.203313   -3.192456   -0.177988
H       3.049464   -2.217326    1.481525
H       3.487891   -1.123229    0.157980
H       2.226503   -0.337563    2.781252
H       2.385167    0.766043    1.416223
H      -0.052304   -0.932577    2.019929
