21

C       0.017507    1.541779   -0.242536
C       0.025434    0.039909   -0.067358
O      -1.091807   -0.601218   -0.635394
C       1.326261   -0.723577   -0.070685
C       0.506140   -0.588744    1.215819
C       0.996205    0.230427    2.421241
C       0.908420   -0.740599    3.631936
C       0.041230   -1.865376    3.116326
C      -0.163989   -1.780607    1.802162
H       0.884687    2.008889    0.231669
H       0.041110    1.803573   -1.307809
H      -0.890263    1.975528    0.189543
H      -1.003024   -0.548841   -1.593718
H       1.331828   -1.693662   -0.557117
H       2.257998   -0.169308   -0.138643
H       2.004216    0.629443    2.278852
H       0.330826    1.084857    2.585682
H       1.898434   -1.115791    3.926678
H       0.491027   -0.254684    4.521311
H      -0.330225   -2.658219    3.755885
H      -0.734033   -2.471717    1.195278
