16

C      -0.181856    1.557693    0.000540
C       0.113190    0.048844    0.061221
C       0.784975   -0.467736   -1.173847
C       2.028395   -0.980814   -1.310443
N       2.339816   -1.367776   -2.615991
C       1.265070   -1.132409   -3.459318
O       1.198328   -1.355980   -4.637498
C       0.172824   -0.509754   -2.508685
O      -0.924444   -0.165110   -2.876455
H       0.742649    2.135098   -0.099698
H      -0.822195    1.787553   -0.854809
H      -0.693287    1.887341    0.909841
H       0.735152   -0.178367    0.935019
H      -0.832508   -0.489241    0.202067
H       2.773426   -1.117207   -0.536464
H       3.208267   -1.780190   -2.911952
