18

C       0.052159    1.492648   -0.008110
O       1.219754    0.667660   -0.008129
C      -0.068547    0.032011    0.016591
C      -0.403495   -0.720267    1.290298
C       0.118788   -2.163113    1.189507
C      -0.345397   -2.795356   -0.124222
O       0.085226   -2.040054   -1.245297
C      -0.437963   -0.724318   -1.245175
H      -0.123551    2.060766    0.905164
H      -0.133578    2.040442   -0.932132
H       0.024244   -0.197155    2.150518
H      -1.494653   -0.732402    1.418531
H       1.214213   -2.157627    1.210343
H      -0.227521   -2.763415    2.038020
H       0.075438   -3.796259   -0.254393
H      -1.446639   -2.887335   -0.130392
H      -1.538542   -0.750209   -1.343471
H      -0.020543   -0.220886   -2.120774
