15

N       0.053121    1.355363   -0.243467
C      -0.038069    0.004436   -0.026816
C      -1.272189   -0.612599    0.033595
N      -1.583183   -1.923728    0.166207
C      -0.789694   -2.939975    0.129863
C       0.661129   -3.009333   -0.075947
N       1.312536   -4.089367   -0.342080
C       1.494699   -1.807531    0.137889
N       1.212575   -0.557924    0.145258
H       0.924516    1.783254    0.024349
H      -0.775435    1.921146   -0.165461
H      -2.140090    0.044151   -0.004656
H      -1.260935   -3.918068    0.264260
H       0.666116   -4.876753   -0.446516
H       2.542540   -2.063274    0.308318
