15

O      -0.020493    1.474939   -0.013979
C      -0.010269    0.084781    0.001899
C      -1.342017   -0.689397   -0.078805
C      -1.611708   -0.798611   -1.555207
O      -0.599270   -0.075845   -2.257953
C       0.364518   -0.651048   -1.313090
C      -0.636943   -1.780926   -0.935044
C      -0.610815   -3.233139   -0.818257
O       0.375306   -3.917553   -0.960514
H      -0.383004    1.726778   -0.874683
H       0.593345   -0.254876    0.845641
H      -2.097207   -0.841034    0.681420
H      -2.575339   -0.950125   -2.022676
H       1.371728   -0.731565   -1.710550
H      -1.603057   -3.680849   -0.580667
