18

C       0.007123    1.513291    0.008503
C      -0.044530   -0.016931    0.002830
C      -1.472648   -0.536737    0.013540
O      -1.411887   -1.970789    0.007410
C      -2.587896   -2.611432    0.014822
C      -2.776784   -3.978337    0.010458
N      -4.129559   -4.092843    0.021927
N      -4.739222   -2.903855    0.032238
N      -3.795925   -1.992879    0.028077
H       1.041038    1.869387    0.000648
H      -0.496344    1.933024   -0.869135
H      -0.480477    1.925930    0.898377
H       0.467929   -0.411190   -0.882274
H       0.483655   -0.418230    0.875437
H      -2.018119   -0.197715    0.902733
H      -2.033893   -0.190837   -0.863096
H      -2.103950   -4.816671    0.000906
H      -4.688815   -4.930712    0.023231
