16

N       0.232916   -1.147600    0.874941
C       0.057890   -0.095605    0.430743
C      -0.192414    1.241891   -0.138636
N       1.064501    1.982550   -0.226479
C       1.579455    2.794065   -1.285890
C       0.579966    3.867674   -1.854157
N      -0.735639    3.684388   -1.194810
C       0.358577    4.404339   -0.499512
C       1.352377    3.344355    0.103232
H      -0.657606    1.125297   -1.119939
H      -0.919665    1.761291    0.489306
H       2.500219    2.512281   -1.784930
H       0.679859    4.381115   -2.800674
H      -1.366682    4.388090   -1.576733
H       0.248786    5.426143   -0.162826
H       2.062880    3.572037    0.890380
