19

C      -0.067761    1.498064   -0.011195
C       0.087651   -0.005710   -0.039626
C       1.477065   -0.635005   -0.134106
C       0.690285   -0.715395    1.128467
O       1.083854   -0.029401    2.318024
C       0.440600   -1.022171    3.142903
C       0.161816   -1.930885    1.910755
C      -1.193465   -2.376161    1.668959
C      -2.322145   -2.734868    1.460433
H       0.702079    1.955759    0.616177
H       0.008484    1.924336   -1.017013
H      -1.040944    1.782777    0.402736
H      -0.707803   -0.548793   -0.544992
H       1.611199   -1.534364   -0.727211
H       2.328843    0.038775   -0.130216
H       1.119486   -1.430768    3.897444
H      -0.465549   -0.636816    3.622801
H       0.856572   -2.775446    1.866680
H      -3.318706   -3.055353    1.282096
