16

N       0.190462   -1.012972   -0.730867
C       0.090579    0.107255   -0.452959
C      -0.007698    1.496273   -0.110643
C      -1.250307    2.074781   -0.134585
C      -1.568805    3.404970    0.307466
C      -0.737001    4.465420    0.271104
C       0.599327    4.411762   -0.421964
C       1.470541    3.441717    0.334834
C       1.205400    2.125432    0.387211
H      -2.084902    1.431437   -0.398687
H      -2.569544    3.541670    0.710345
H      -1.042334    5.398889    0.735372
H       0.466996    4.062758   -1.454775
H       1.059836    5.400723   -0.462808
H       2.349005    3.825552    0.845273
H       1.924338    1.458327    0.854452
