19

C      -0.241060    1.484314    0.274508
C      -0.046342   -0.031031    0.160692
O       0.652700   -0.533774    1.280458
C      -1.401617   -0.722550   -0.051033
N      -1.327860   -2.181850   -0.180866
C      -1.319720   -2.989378    0.945919
N      -1.250904   -2.493667    2.117508
C      -1.335428   -2.777352   -1.434948
O      -1.284633   -3.965091   -1.640729
H       0.725899    1.959817    0.454720
H      -0.671768    1.909820   -0.638975
H      -0.898806    1.727227    1.116363
H       0.578301   -0.237762   -0.722909
H       0.024157   -0.989913    1.863887
H      -2.066632   -0.501626    0.789463
H      -1.868892   -0.332936   -0.960563
H      -1.387214   -4.046889    0.689713
H      -1.276808   -3.225915    2.822734
H      -1.398024   -2.023041   -2.240313
