23

C       0.082012    1.641103   -0.021094
C       0.044704    0.122743    0.044745
C       0.909014   -0.700938   -0.957274
C       1.375490   -1.624123    0.211154
C       2.876323   -1.685935    0.543273
C       3.004961   -0.754763    1.773646
C       4.285245    0.057555    1.853618
O       1.894990    0.141515    1.683268
C       0.778450   -0.591893    1.211102
H       1.106462    2.004117    0.094994
H      -0.305715    1.997980   -0.981720
H      -0.524168    2.091838    0.772463
H      -0.991814   -0.231722    0.016271
H       0.372893   -1.184226   -1.777603
H       1.732955   -0.118754   -1.380878
H       0.888736   -2.600710    0.208026
H       3.223608   -2.697791    0.770691
H       3.482970   -1.308346   -0.287089
H       2.899328   -1.360756    2.690252
H       4.399803    0.675428    0.957301
H       4.273368    0.715830    2.726779
H       5.153016   -0.604650    1.933381
H       0.168167   -0.954628    2.049779
