16

O      -0.154472   -0.058753    0.375253
C      -0.097314    1.118010    0.095570
N       1.045180    1.813852   -0.178875
C       2.347911    1.228480   -0.170715
C       3.377950    1.465166   -1.334594
C       3.456953    3.002929   -1.383399
C       3.584646    3.305222   -0.087673
C       3.564467    1.906778    0.558308
O       4.414242    1.147471   -0.355432
H      -0.992272    1.768391    0.031997
H       0.971110    2.795373   -0.400375
H       2.252993    0.174940    0.084409
H       3.411708    0.876767   -2.249723
H       3.422199    3.633780   -2.259173
H       3.685485    4.257043    0.412354
H       3.792512    1.778378    1.614871
