16

C      -0.068274    1.557411   -0.000070
C       0.043392    0.030762   -0.012153
N       0.807604   -0.470351   -1.163674
C       1.768681   -1.164444   -0.699159
N       1.829484   -1.258220    0.701845
C       2.773045   -1.937649    1.464193
N       3.715377   -2.582851    0.913118
C       0.758332   -0.512871    1.230311
O       0.516071   -0.364094    2.400967
H       0.923956    2.017393   -0.002094
H      -0.607473    1.898345   -0.886306
H      -0.602131    1.881462    0.896821
H      -0.964656   -0.402257   -0.045763
H       2.524330   -1.675295   -1.282281
H       2.571531   -1.825125    2.532812
H       4.308756   -3.016976    1.617478
