16

O       0.178144    0.188315   -0.862905
C      -0.008514    1.177777   -0.236552
C      -1.186643    2.056013    0.188314
C      -0.098271    2.901742    0.874712
C      -0.107526    2.986152    2.387843
C       1.236083    3.511238    2.933269
C       1.244906    3.600247    4.390914
N       1.230337    3.666771    5.544265
O       0.930953    1.965536    0.390972
H      -1.717780    2.524327   -0.641427
H      -1.900624    1.562593    0.850544
H       0.071144    3.881309    0.417140
H      -0.922977    3.647015    2.701930
H      -0.310410    1.995926    2.809266
H       2.045707    2.848781    2.609653
H       1.453685    4.504128    2.522150
