14

N      -0.048221    1.492797    0.024638
C       0.063124    0.034899    0.027843
C       0.621388   -0.539260    1.316992
C      -0.321201   -1.285804    1.894184
N      -1.508509   -1.303953    1.145549
C      -1.408580   -0.515624    0.025774
O      -2.264177   -0.249896   -0.777702
C       0.793571   -0.504661   -1.138742
N       1.396591   -0.880903   -2.051276
H       0.862783    1.915815   -0.124931
H      -0.646489    1.765445   -0.752630
H       1.628090   -0.377820    1.667638
H      -0.273327   -1.848037    2.815531
H      -2.374775   -1.730689    1.430345
