23

C       0.054526    1.597514   -0.186143
C       0.046908    0.067124   -0.188548
C      -1.345506   -0.519573    0.121580
C      -1.387456   -2.017887    0.122632
C      -1.579126   -2.862470    1.140092
C      -1.812211   -2.582441    2.589763
C      -1.547842   -4.278207    0.623721
O      -1.303221   -4.182479   -0.773055
C      -1.216779   -2.813931   -1.148771
H       1.051861    1.991085   -0.405277
H      -0.634582    1.998344   -0.937905
H      -0.253578    1.994049    0.787851
H       0.390996   -0.299105   -1.163232
H       0.764009   -0.311490    0.549855
H      -1.685304   -0.133966    1.089608
H      -2.057694   -0.137982   -0.625158
H      -2.763135   -3.014452    2.927265
H      -1.027965   -3.034187    3.210812
H      -1.834248   -1.511883    2.806834
H      -0.756708   -4.880163    1.101678
H      -2.500533   -4.804364    0.807646
H      -1.999853   -2.573541   -1.888752
H      -0.248748   -2.629065   -1.641517
