14

N      -0.076265    1.321649    0.087496
C      -0.047374    0.053272    0.001569
N       1.066472   -0.807658   -0.129175
C       0.751126   -2.240280   -0.014894
C      -0.739417   -2.164003   -0.005142
C      -1.188360   -0.872926    0.001386
N      -2.548762   -0.862085    0.000500
N      -2.958987   -2.094604   -0.007397
N      -1.853760   -2.909868   -0.015566
H       0.864187    1.719605    0.064923
H       1.961986   -0.483681    0.200012
H       1.151159   -2.810775   -0.863480
H       1.154991   -2.686117    0.905501
H      -1.988517   -3.908018   -0.019681
