19

C      -0.001721    1.578696    0.026465
C      -0.034581    0.073917    0.009147
C       0.402002   -0.746213   -1.243866
C      -0.551733   -1.829971   -0.757841
C      -0.482264   -1.820944    0.809065
O      -0.920688   -2.897272    1.548512
C       0.536491   -0.758471    1.203380
C      -1.348123   -0.848780    0.082355
O      -2.679982   -0.574391    0.232652
H       1.029967    1.949806   -0.002756
H      -0.528320    2.000054   -0.837459
H      -0.473319    1.976723    0.931238
H       0.060889   -0.282521   -2.175894
H       1.468954   -0.984639   -1.327831
H      -0.911233   -2.721396   -1.257460
H      -0.292095   -3.619385    1.438558
H       1.605770   -1.002045    1.172647
H       0.282816   -0.308918    2.167960
H      -3.041208   -0.316387   -0.622838
