19

C      -0.743528    0.867468   -0.065286
N       0.485762    0.095936    0.152077
C       1.009256   -0.553011   -0.983099
C       1.821881   -0.132408   -2.007239
C       2.057362   -1.244873   -2.873569
C       1.360624   -2.300470   -2.337864
O       1.200034   -3.597046   -2.721159
N       0.728563   -1.905606   -1.193827
C      -0.063672   -2.758622   -0.334199
H      -0.641882    1.651759   -0.830840
H      -1.544383    0.192760   -0.382593
H      -1.048970    1.332271    0.877595
H       1.193094    0.678314    0.582249
H       2.212875    0.866980   -2.126392
H       2.653219   -1.262466   -3.773153
H       1.710666   -3.734094   -3.524450
H       0.453756   -3.705625   -0.161375
H      -0.201183   -2.234558    0.612483
H      -1.044048   -2.977776   -0.772376
