19

C      -0.601018    1.611691   -0.304854
C      -0.884745    0.165996   -0.710430
C      -1.063827   -0.763426    0.465611
O      -0.788163   -0.457249    1.606581
C      -1.620411   -2.192513    0.225508
C      -0.828157   -2.930040   -0.868725
O      -1.579380   -2.902737    1.432474
C      -3.096906   -2.064515   -0.203508
O      -3.472074   -1.672441   -1.277052
H      -0.437719    2.229699   -1.191475
H      -1.439021    2.033616    0.256756
H       0.284748    1.673230    0.331457
H      -1.766212    0.078185   -1.355784
H      -0.056677   -0.238543   -1.309550
H       0.242180   -2.905997   -0.647624
H      -1.148329   -3.974703   -0.889754
H      -1.014308   -2.486483   -1.848637
H      -1.269174   -2.262350    2.096332
H      -3.792296   -2.390390    0.599083
