17

C      -0.058157   -1.216813   -0.046120
C      -0.052591   -0.016318    0.018892
C      -0.009758    1.437778    0.101399
C       1.427010    2.010433    0.002893
C       2.110541    1.719487   -1.322480
C       2.526040    2.828922   -1.937986
C       2.141576    4.033032   -1.140956
O       0.706793    4.175168   -0.981915
C       1.450895    3.539077    0.060316
H      -0.082370   -2.276653   -0.104455
H      -0.609933    1.883283   -0.699405
H      -0.459349    1.762299    1.048344
H       2.015157    1.600109    0.834384
H       2.187901    0.709997   -1.708726
H       3.035363    2.879287   -2.892219
H       2.690239    4.968618   -1.184418
H       1.454398    4.057698    1.015637
