19

C      -0.421323    1.008514   -0.254364
O       0.556504    0.032475    0.070428
C       1.020592   -0.654765   -1.034046
C       1.495754   -2.053342   -0.800831
C       0.204440   -1.821355   -1.588024
O      -1.004623   -2.045039   -0.913974
C       0.192971   -2.063138   -3.005778
C       0.169272   -2.282978   -4.191179
C       0.135355   -2.537568   -5.623725
H      -0.023746    1.754088   -0.959364
H      -1.314434    0.545029   -0.688636
H      -0.687349    1.510879    0.678330
H       1.538307   -0.046144   -1.777351
H       2.374339   -2.412864   -1.323071
H       1.347837   -2.427070    0.206288
H      -1.207711   -2.984323   -0.984563
H      -0.892625   -2.692919   -5.969653
H       0.546973   -1.693019   -6.187713
H       0.713348   -3.429456   -5.890659
