14

C      -0.038260    1.572790    0.001229
C      -0.002207    0.024571    0.011821
C       0.742395   -0.499837    1.295902
O       2.061340   -0.032832    1.353147
C      -1.365237   -0.526110    0.005697
N      -2.438265   -0.949751    0.058467
C       0.741529   -0.470755   -1.159479
N       1.395777   -0.852899   -2.031556
H       0.981216    1.945901    0.106664
H      -0.473369    1.947321   -0.926508
H      -0.639309    1.924977    0.842831
H       0.216912   -0.099388    2.166979
H       0.676299   -1.594424    1.321318
H       2.589204   -0.515548    0.706116
