19

C       0.013504    1.519391   -0.002061
C      -0.024286    0.008589   -0.005671
C      -1.385664   -0.715075    0.087024
O      -0.888400   -1.582448    1.157565
C       0.378583   -0.845416    1.208678
C       1.571588   -1.457309    0.456411
C       1.147739   -2.175635   -0.784243
O       0.081049   -3.067101   -0.883284
C       1.106139   -0.670783   -0.824689
H       1.024689    1.885694    0.205965
H      -0.287105    1.920950   -0.977089
H      -0.660826    1.932897    0.755256
H      -2.197515   -0.080596    0.461687
H      -1.722352   -1.287390   -0.780458
H       0.575775   -0.433911    2.201160
H       2.560151   -1.566508    0.888741
H       1.995106   -2.552542   -1.354588
H      -0.428014   -2.972051   -0.064510
H       1.717443   -0.116765   -1.529965
