18

C      -0.133728    1.535687   -0.110191
C      -0.033566    0.013398   -0.002232
C       0.975305   -0.579374   -1.071971
N       2.337236   -0.575437   -0.437449
C       2.053849   -0.561515    0.789749
O       2.667961   -0.161940    1.949451
C       1.330818    0.260677    2.461422
C       0.644274   -0.507003    1.279894
O       0.023491   -1.716717    1.663148
H       0.852619    2.008193   -0.047202
H      -0.571643    1.820042   -1.071762
H      -0.764859    1.952999    0.680921
H      -1.025263   -0.436232   -0.096582
H       0.694260   -1.591304   -1.383606
H       1.017443    0.046438   -1.967890
H       1.143048   -0.152260    3.454269
H       1.267402    1.350253    2.460588
H       0.653592   -2.249391    2.162241
