18

C      -0.577039    1.696590   -0.357246
C      -0.016931    0.288540   -0.136089
C      -1.134929   -0.737146    0.213196
O      -0.609518   -2.020941    0.593810
C      -2.028933   -0.250537    1.264364
C      -2.731809    0.109609    2.170641
C       0.816755   -0.138967   -1.370037
N       1.267007   -1.423577   -1.361853
O       1.086723    0.645875   -2.260023
H       0.221952    2.361941   -0.684599
H      -1.337782    1.696058   -1.144282
H      -1.025965    2.085130    0.558482
H       0.668591    0.303637    0.723166
H      -1.720674   -0.933369   -0.693174
H      -0.346060   -1.959157    1.519261
H      -3.367873    0.433617    2.957588
H       0.877270   -2.087197   -0.708353
H       1.738873   -1.745700   -2.191557
