21

C       0.269159    1.626062    0.048009
O       1.542864    1.347330    0.679722
C       1.256210   -0.067107    0.729218
C      -0.051256    0.131052   -0.087243
C       0.594173   -0.654876   -1.281242
C       1.051736    0.036831   -2.581533
C       2.548317   -0.331788   -2.690794
C       3.059619   -0.308826   -1.234066
C       1.888336   -0.893283   -0.427493
H      -0.401901    2.157509    0.735794
H       0.377771    2.222826   -0.864790
H       1.315729   -0.463316    1.747019
H      -1.035396   -0.200347    0.241583
H       0.033819   -1.567853   -1.495644
H       0.474942   -0.279415   -3.455360
H       0.948352    1.124664   -2.512538
H       2.648339   -1.343778   -3.102848
H       3.104782    0.341158   -3.350624
H       3.992407   -0.864420   -1.105531
H       3.237263    0.723001   -0.915122
H       2.050106   -1.936697   -0.143300
