16

C       0.078057    1.363287   -0.134994
C       1.517077    1.799123    0.216062
N       2.135606    0.491679    0.329159
C       3.311675    0.139725    1.121587
C       2.956418   -1.337828    1.489599
N       1.482299   -1.433014    1.414224
C       1.147889   -0.389782    0.775113
O      -0.081539    0.067416    0.483881
H      -0.691879    2.027422    0.260790
H      -0.055503    1.254177   -1.216445
H       1.963088    2.415228   -0.569418
H       1.551073    2.360541    1.164758
H       4.239765    0.236852    0.552979
H       3.382513    0.773624    2.020562
H       3.414296   -2.035359    0.775746
H       3.310792   -1.610677    2.487135
