22

C       0.031811    1.569019   -0.064216
C      -0.004769    0.040998    0.010485
C      -1.428528   -0.530525    0.025691
O      -2.169518   -0.111175   -1.120848
C      -1.441597   -2.057620    0.174952
C      -2.851664   -2.645691    0.269911
C      -2.856174   -4.165795    0.350199
O      -4.206088   -4.597161    0.438790
H       1.059088    1.939431   -0.132343
H      -0.523497    1.924747   -0.935922
H      -0.426810    2.016567    0.824497
H       0.534427   -0.389371   -0.846815
H       0.525173   -0.306457    0.906335
H      -1.976106   -0.090023    0.870147
H      -1.727524   -0.472041   -1.898235
H      -0.908572   -2.497082   -0.682774
H      -0.858288   -2.329556    1.064755
H      -3.363852   -2.249358    1.155380
H      -3.440986   -2.330768   -0.596772
H      -2.361248   -4.587260   -0.541117
H      -2.274916   -4.496389    1.227482
H      -4.211887   -5.556808    0.497708
