12

N       0.056873    1.329438    0.112473
C      -0.031604   -0.018404    0.038903
N      -1.159270   -0.635400    0.021009
C      -1.197791   -2.030084   -0.004572
O      -2.225138   -2.668872   -0.018031
C       0.135384   -2.674159   -0.020227
F       0.188878   -3.997126   -0.048612
C       1.255215   -1.947510   -0.010946
O       1.208092   -0.580233    0.019636
H       0.933734    1.775049   -0.094808
H      -0.795395    1.843253   -0.030887
H       2.264415   -2.333730   -0.024653
