21

C      -0.284725    2.002120    0.044112
C       1.020980    1.251968   -0.045974
C      -0.272184    0.493785    0.065911
N      -0.553253   -0.160207    1.313735
C      -1.835310   -0.854012    1.408076
C      -0.563648   -1.620771    1.292337
N       1.695526    1.231831   -1.314182
C       2.927651    2.011180   -1.405947
C       2.972104    0.523162   -1.358370
H      -0.508433    2.508900    0.975468
H      -0.640103    2.487462   -0.857244
H       1.644190    1.253948    0.851913
H      -0.604221   -0.007046   -0.847060
H      -2.347442   -0.773578    2.362769
H      -2.487944   -0.836823    0.537080
H      -0.365407   -2.116696    0.343712
H      -0.132213   -2.110133    2.161006
H       3.084560    2.539303   -2.342245
H       3.256772    2.548250   -0.518200
H       3.331036    0.064547   -0.438603
H       3.162754   -0.053250   -2.259258
