15

N       0.166278   -1.132165   -0.013156
C       0.069142    0.021932    0.011929
C      -0.061469    1.432209    0.025193
C       0.101678    2.335007    1.244360
C      -0.985951    3.390425    1.178117
N      -1.125314    3.590838   -0.270423
C       0.177260    3.368659   -0.920689
C       1.019626    2.516928    0.069425
C      -0.880307    2.324456   -0.965041
H       0.469427    1.908137    2.168414
H      -1.936882    3.053868    1.600334
H      -0.691028    4.329413    1.655915
H       0.543327    4.062454   -1.664785
H       2.090481    2.379465    0.077802
H      -1.542017    1.974049   -1.745328
