22

C      -0.018860    1.569689   -0.097680
C       0.025385    0.040812   -0.004632
C       0.687723   -0.506149    1.268940
O       2.049777   -0.053671    1.359562
C      -0.053775   -0.173826    2.582417
C       0.501470   -1.204020    3.575203
C       0.546135   -2.506374    2.748463
C       0.776127   -2.052980    1.280664
H       0.989335    1.998500   -0.089016
H      -0.494147    1.889586   -1.029674
H      -0.584467    2.012670    0.729022
H      -0.994195   -0.359880   -0.065482
H       0.572490   -0.358008   -0.867491
H       2.035452    0.893369    1.532826
H       0.094965    0.864466    2.898429
H      -1.132837   -0.320999    2.443262
H       1.513803   -0.909578    3.868372
H      -0.097421   -1.294779    4.485663
H       1.317758   -3.196056    3.100084
H      -0.410320   -3.033849    2.833266
H       0.027200   -2.484505    0.610291
H       1.758422   -2.343234    0.900858
