17

O      -0.504586    0.450262    0.073936
C       0.040958    1.490608    0.328650
C       1.426203    1.880581   -0.119486
O       2.167071    0.843816   -0.762078
C       2.427197    1.664629   -1.918871
C       1.522962    2.791693   -1.390506
C       0.312280    3.347872   -2.165811
C       0.960621    4.720251   -1.903180
O       2.081118    4.093627   -1.231801
H      -0.465416    2.292137    0.918730
H       1.967832    2.335991    0.724331
H       3.480022    1.963247   -1.993669
H       2.107401    1.178975   -2.848159
H       0.280745    3.041772   -3.212946
H      -0.668709    3.181469   -1.719630
H       1.281441    5.282780   -2.785824
H       0.409716    5.387509   -1.231078
