19

C       0.215255    1.146700    1.281279
C      -0.172913    0.509698   -0.054662
O       0.838509   -0.407839   -0.490167
C      -1.538226   -0.137555   -0.030464
C      -2.069279   -0.952909   -0.994193
C      -1.572360   -1.451133   -2.304787
O      -3.324075   -1.345787   -0.630799
C      -3.600443   -0.773532    0.571203
C      -2.549580   -0.026609    0.988989
H       1.225248    1.556881    1.207521
H      -0.470022    1.956497    1.551128
H       0.200645    0.405309    2.088258
H      -0.154466    1.292367   -0.823859
H       0.756662   -1.196543    0.058303
H      -0.509289   -1.226651   -2.396438
H      -1.713001   -2.534063   -2.392484
H      -2.107540   -0.985776   -3.141573
H      -4.567546   -1.000428    0.988246
H      -2.491778    0.535777    1.907355
