16

N      -0.104648    1.462660    0.037854
C       0.044246    0.061673    0.012626
C       0.138968   -1.070192   -0.989596
O       1.267451   -1.698299   -0.376293
C       0.921095   -0.984749    0.836763
C      -0.396719   -1.669495    1.304002
O      -0.970761   -1.124144    2.477228
C      -0.995250   -1.078189    0.033785
O      -2.316899   -1.046043   -0.339569
H       0.524500    1.940266   -0.599513
H      -1.054802    1.735362   -0.189913
H      -0.003120   -1.133610   -2.061300
H       1.750696   -0.804769    1.518490
H      -0.376520   -2.754873    1.437050
H      -0.855941   -0.165169    2.444555
H      -2.830715   -0.873815    0.460299
