17

O      -0.044625    1.409936   -0.112706
C      -0.022380   -0.020189   -0.029804
C       0.806165   -0.507594    1.129007
C       0.271433   -0.940611    2.272280
C      -1.214499   -1.004364    2.535928
C      -1.999034   -0.285833    1.444867
O      -2.891297    0.494271    1.673010
C      -1.478549   -0.556544    0.034394
O      -2.273489   -0.006260   -0.972034
H      -0.139490    1.755357    0.782628
H       0.407478   -0.341798   -0.983717
H       1.885448   -0.461521    1.014083
H       0.918102   -1.263280    3.084729
H      -1.541225   -2.054817    2.574707
H      -1.471433   -0.564329    3.505029
H      -1.448073   -1.642175   -0.124161
H      -2.218088    0.952112   -0.865528
