16

C      -0.053870    1.567009    0.034831
C       0.085080    0.062898    0.041042
C       1.366515   -0.667777   -0.218618
O       2.567202    0.058230   -0.008730
C       2.576168    0.377518    1.320226
C       3.762527    1.172161    1.753245
O       3.935081    1.562107    2.876944
N       1.621368   -0.051629    2.050818
C       0.720000   -0.741431    1.174323
H       0.773020    2.063189    0.546496
H      -0.087323    1.945080   -0.991921
H      -0.977802    1.865665    0.538893
H      -0.765307   -0.466949   -0.381889
H       1.476451   -1.460791   -0.947271
H       4.481694    1.364480    0.930980
H       0.198835   -1.595472    1.588843
