21

C       2.247818    1.247002   -1.435543
O       2.022688   -0.139985   -1.482579
C       0.708416   -0.495044   -1.103459
C       0.618734   -2.014754   -1.043235
O       1.079307   -2.351735    0.247874
C      -0.666997   -2.728954   -1.611792
C      -0.140165   -2.385364   -3.037560
C       1.110324   -2.874077   -2.253812
C       0.190850   -4.024114   -1.722459
H       1.573389    1.796666   -2.112781
H       2.111277    1.649617   -0.419226
H       3.279943    1.422934   -1.749068
H       0.475406   -0.106085   -0.100397
H      -0.022256   -0.060445   -1.800417
H       1.391850   -3.260032    0.251223
H      -1.690963   -2.647245   -1.243479
H      -0.481132   -3.053919   -3.830835
H      -0.160680   -1.348062   -3.368915
H       2.133080   -2.954166   -2.622500
H       0.460864   -4.539031   -0.797292
H      -0.134802   -4.752036   -2.469280
