18

C       0.111165    1.563707    0.327077
C       0.224155    0.085976    0.050519
N       1.348497   -0.472854   -0.116539
N      -1.042217   -0.554726    0.007329
C      -1.292247   -1.884925   -0.229829
O      -0.422263   -2.719026   -0.424774
C      -2.744722   -2.260681   -0.232896
C      -3.187171   -3.172512   -1.333233
N      -3.057097   -3.670143    0.030789
H       1.111419    1.993561    0.348414
H      -0.479102    2.067107   -0.447768
H      -0.379446    1.748950    1.289957
H       1.232500   -1.471626   -0.291849
H      -1.847455    0.033639    0.158208
H      -3.448433   -1.543415    0.182444
H      -4.203620   -3.088299   -1.706168
H      -2.433723   -3.454714   -2.062615
H      -2.163853   -4.157562    0.112806
