16

N      -0.004625    1.376035   -0.138152
C      -0.057728   -0.008829   -0.054602
N      -1.171325   -0.619259    0.071301
C      -1.169224   -2.039604   -0.014539
C      -0.731835   -2.728522   -1.269784
C       0.162590   -2.807756   -0.039945
C       1.400488   -1.997911    0.004732
O       2.518358   -2.434464    0.178932
N       1.187228   -0.630079   -0.167326
H       0.750834    1.813386    0.373155
H      -0.902160    1.783508    0.087690
H      -1.980945   -2.501241    0.537877
H      -1.230889   -3.646815   -1.557120
H      -0.403298   -2.108957   -2.097069
H       0.254050   -3.765653    0.456804
H       2.028008   -0.070699   -0.188686
