14

N       0.231608    1.435179    0.006570
C      -0.037653    0.052476    0.011842
C      -1.146341   -0.773779   -0.013633
N      -2.519275   -0.917713   -0.053852
C      -2.747607   -2.286230   -0.047422
N      -1.671419   -3.025971   -0.007602
C      -0.646536   -2.097087    0.014407
N       0.687194   -2.145804    0.055261
N       1.011260   -0.837570    0.052299
H      -0.112058    1.894236   -0.829969
H      -0.163772    1.910515    0.810526
H      -3.225178   -0.203967   -0.082015
H      -3.758846   -2.668801   -0.074321
H       1.979931   -0.562361    0.079028
