16

N       0.139961    1.443004   -0.031508
C       0.024156    0.023643    0.014253
C      -0.441059   -0.659850    1.280118
C      -0.882010    0.103400    2.411518
N      -1.237909    0.702802    3.334886
C      -1.335206   -0.701094    0.015483
N      -2.474834    0.178850    0.059783
C      -1.452961   -1.967531   -0.654639
C      -1.557412   -3.013868   -1.241236
H       0.232440    1.753931   -0.993607
H      -0.701989    1.870553    0.345300
H       0.822944   -0.496285   -0.503738
H       0.048256   -1.592354    1.537134
H      -2.850343    0.307018   -0.874653
H      -3.214986   -0.213129    0.634089
H      -1.655240   -3.939115   -1.753421
