16

N      -0.029844    1.483459    0.022456
C       1.286215    0.803449   -0.004467
C       0.037011    0.003482    0.003530
C       0.052039   -0.652934   -1.404867
O       1.460627   -0.860215   -1.601705
C       1.863336    0.507022   -1.416470
C       0.982049    1.232944   -2.448610
O       0.631161    0.415368   -3.566869
C      -0.248046    0.445180   -2.440741
H      -0.221211    1.791843    0.974411
H       1.946491    0.868989    0.852246
H      -0.290938   -0.563817    0.866570
H      -0.478054   -1.599602   -1.493922
H       2.944087    0.591943   -1.515838
H       1.014768    2.305873   -2.594270
H      -1.237568    0.863456   -2.579865
