16

N      -0.165675    1.309301    0.011091
C      -0.066261   -0.034461    0.222751
O       0.772111   -0.583507    0.895893
O      -1.087542   -0.677293   -0.412703
C      -1.066214   -2.090664   -0.289614
C      -1.574624   -2.781885    0.999123
C      -3.010665   -2.284858    0.701739
C      -2.386138   -2.821209   -0.609771
O      -1.838386   -3.968436    0.148813
H       0.628827    1.864290    0.277943
H      -0.757170    1.647058   -0.728576
H      -0.162610   -2.524571   -0.716455
H      -1.059501   -2.937897    1.944438
H      -3.804229   -2.906677    1.116564
H      -3.211668   -1.215240    0.774556
H      -2.847063   -3.026518   -1.575582
