20

O      -0.101578    1.479373   -0.076036
C      -0.012524    0.065311   -0.169741
C      -1.382089   -0.514145    0.176179
C      -1.403844   -2.016906    0.139083
C      -1.579462   -2.804024   -1.134697
C      -2.579350   -2.987728   -0.024795
C      -2.000287   -3.914789    1.048733
C      -0.792366   -2.934975    1.213923
H       0.759180    1.849881   -0.291110
H       0.275684   -0.253371   -1.184068
H       0.745665   -0.332869    0.524301
H      -1.667110   -0.151631    1.172196
H      -2.117950   -0.108170   -0.528468
H      -1.932938   -2.230045   -1.986168
H      -0.894030   -3.608784   -1.395128
H      -3.630353   -2.763192   -0.167211
H      -2.613283   -3.968483    1.951157
H      -1.769315   -4.935649    0.725629
H       0.204700   -3.334925    1.000041
H      -0.772739   -2.469663    2.203227
