14

N      -0.357064    1.117369   -0.559014
C      -0.137941   -0.024177   -0.097375
O       0.995146   -0.600128    0.422782
C       0.298147   -1.866222    0.674298
C      -0.999922   -1.271996    0.106511
C      -2.150812   -1.092169    1.087521
O      -2.070095   -1.419605    2.250732
C      -3.340599   -0.488599    0.528805
C      -4.324030    0.002623    0.039520
H       0.478913    1.703329   -0.528889
H       0.747849   -2.678265    0.100565
H       0.266145   -2.094460    1.739704
H      -1.362316   -1.695834   -0.832235
H      -5.194792    0.444631   -0.381128
