19

C       0.065399    1.469460    0.202168
C      -0.079276   -0.049266    0.096735
C      -1.543927   -0.485039    0.054541
O      -2.417113    0.205846   -0.443981
N      -1.790387   -1.711854    0.597260
C      -3.091980   -2.348119    0.558418
C      -3.004659   -3.736298   -0.057981
O      -2.092201   -4.487749    0.736665
H       1.112066    1.769681    0.100534
H      -0.522231    1.953881   -0.580140
H      -0.301932    1.834393    1.166167
H       0.385256   -0.403192   -0.833464
H       0.445751   -0.555139    0.915331
H      -1.029843   -2.264701    0.958206
H      -3.505715   -2.435099    1.571806
H      -3.750381   -1.702393   -0.026172
H      -4.003697   -4.197853   -0.066573
H      -2.653332   -3.657644   -1.097422
H      -1.933829   -5.332091    0.305423
