16

O      -0.078299    1.404153    0.027267
C       0.028303   -0.013249    0.003139
C      -1.425094   -0.536449   -0.009713
O      -1.464311   -1.911487   -0.296419
C      -1.019510   -2.216950   -1.604532
C       0.235730   -1.487400   -1.986199
C       0.737462   -0.505435   -1.244475
C       0.747396   -0.483032    1.209088
N       1.341209   -0.813462    2.144257
H       0.800879    1.779473    0.151319
H      -1.893578   -0.393576    0.965444
H      -1.966175    0.061850   -0.757741
H      -0.855083   -3.299884   -1.626908
H      -1.811613   -1.996874   -2.343442
H       0.718653   -1.793533   -2.910149
H       1.658278    0.005663   -1.510863
