19

C       0.005939    1.376273    0.645822
C       0.000328   -0.015117    0.035682
C       0.978219   -0.297432   -1.078714
C       1.191816   -0.908314    0.285362
C      -1.374803   -0.653286    0.009215
C      -2.314970   -0.367177   -1.120226
N      -1.759547   -1.709860   -0.944843
C      -1.942456   -0.847953    1.333663
N      -2.374318   -0.966721    2.399298
H       1.022602    1.777820    0.680765
H      -0.610751    2.067583    0.060785
H      -0.383854    1.359467    1.668626
H       0.707501   -0.957438   -1.896789
H       1.618216    0.522195   -1.386927
H       1.993897   -0.527207    0.907521
H       1.014571   -1.973457    0.388872
H      -3.380534   -0.280995   -0.933411
H      -1.924755    0.264356   -1.914130
H      -1.003797   -1.875239   -1.604064
