17

O       0.118527    0.084527    0.269575
C       0.026881    1.278903    0.104892
C      -1.211778    2.072253   -0.177257
N      -1.298751    3.259250    0.730740
C      -0.777014    3.429851   -0.627272
C       0.746289    3.508679   -0.658467
C       1.195927    2.233612    0.046620
C       2.204294    2.137265    1.142501
N       2.523146    1.658515   -0.199902
H      -2.116010    1.577515   -0.509316
H      -2.274440    3.548095    0.761440
H      -1.361596    3.983071   -1.354846
H       1.105913    3.506131   -1.692890
H       1.112077    4.418021   -0.173223
H       2.720973    3.043143    1.448074
H       2.022786    1.410851    1.930064
H       2.411837    0.643003   -0.222212
