21

C      -0.178233    1.513349    0.027528
O      -0.137243    0.137758    0.357483
C      -1.323858   -0.595683    0.034689
C      -1.458979   -0.810469   -1.474937
C      -1.283584   -1.922869    0.791732
O      -2.446633   -2.685450    0.586500
C       0.029370   -2.661339    0.988159
C      -0.694809   -2.035475    2.168640
O      -0.180744   -0.960254    2.882987
H       0.731848    1.964487    0.429497
H      -0.199487    1.677554   -1.057130
H      -1.051934    2.007925    0.475961
H      -2.199031   -0.033844    0.399581
H      -2.367212   -1.380397   -1.688075
H      -1.538497    0.137185   -2.013785
H      -0.593152   -1.358411   -1.860051
H      -2.326783   -3.202351   -0.217943
H       0.023896   -3.742647    0.893567
H       0.929370   -2.165627    0.640124
H      -1.217919   -2.723113    2.825258
H       0.104314   -0.311674    2.223918
