16

N       0.046812    1.367571   -0.119913
C       0.001434   -0.012259   -0.004000
C      -1.145286   -0.748675    0.066730
N      -1.090347   -2.100024    0.243105
N       0.041795   -2.811120    0.324991
C       1.164281   -2.140175    0.292178
N       2.344988   -2.867745    0.441023
C       1.277146   -0.689959    0.139102
N       2.367686    0.014147    0.107448
H       0.986551    1.676330   -0.342582
H      -0.673062    1.796655   -0.680721
H      -2.138039   -0.320119    0.005303
H      -1.929018   -2.652284    0.279968
H       2.179105   -3.864439    0.383126
H       3.073154   -2.580266   -0.201697
H       3.190400   -0.556954    0.290044
