15

C      -0.092148    1.503556    0.069320
C       0.053294    0.020825    0.079809
O      -1.164585   -0.771554   -0.026149
C      -0.688507   -1.653372    0.940057
O      -1.272785   -2.548449    1.452115
C       0.651016   -0.971549    1.047707
C       1.214619   -0.807531   -0.390020
C       1.130372   -1.826106   -1.395883
C       1.073174   -2.675709   -2.243612
H       0.874612    1.981718    0.248502
H      -0.467059    1.842706   -0.901616
H      -0.794874    1.826795    0.842563
H       1.267853   -0.864045    1.928100
H       2.156087   -0.260278   -0.370190
H       1.009926   -3.428958   -2.989658
