18

O      -0.019947    1.416944   -0.020002
C       0.006782    0.006826   -0.094047
C       0.808425   -0.673019    1.052691
C       0.097740   -1.996539    1.312294
C       0.747794   -3.311068    1.242204
O       0.390518   -2.727937    2.499942
C      -1.329719   -1.803359    0.888022
N      -1.900898   -0.521164    1.373358
C      -1.379473   -0.623982   -0.006885
H      -0.529823    1.630884    0.771712
H       0.453910   -0.229657   -1.065455
H       1.866544   -0.793542    0.813454
H       0.735248   -0.052594    1.950393
H       0.173977   -4.192775    0.956223
H       1.816417   -3.369827    1.038072
H      -1.984249   -2.660162    0.769480
H      -2.915266   -0.590989    1.357432
H      -2.065445   -0.548754   -0.843774
