17

C      -0.243132    1.538759   -0.142068
C      -0.017865    0.032191   -0.076043
C       1.234965   -0.482864   -0.842944
N       1.948113   -0.614503    0.448940
C       0.681743   -0.559746    1.188589
C       0.739701    0.223424    2.488633
F       1.282259    1.436928    2.360330
F      -0.499851    0.381022    2.990873
F       1.464525   -0.443281    3.404868
H       0.681446    2.091717    0.036871
H      -0.618863    1.810821   -1.134034
H      -0.980699    1.864243    0.597689
H      -0.942069   -0.493010   -0.324513
H       1.053740   -1.432919   -1.363396
H       1.705025    0.218049   -1.541404
H       2.502680   -1.452297    0.578718
H       0.254521   -1.537476    1.455840
