14

O      -0.002339    1.344202    0.007693
C      -0.046817    0.019176    0.001106
C      -1.258693   -0.626669    0.005083
C      -1.490509   -2.013138   -0.000842
C      -0.586579   -3.052269   -0.011687
N       0.762843   -3.035934   -0.019392
C       1.553043   -2.002855   -0.018653
C       1.306769   -0.570311   -0.010059
O       2.243125    0.243260   -0.011566
H       0.970238    1.532058    0.002762
H      -2.129357    0.022761    0.013726
H      -2.536387   -2.309802    0.003809
H      -1.003639   -4.057029   -0.014597
H       2.622376   -2.221745   -0.025882
