18

O       0.041278    0.007073   -0.211560
C      -0.008042    1.180258    0.021112
C      -1.110258    2.250586    0.025720
C      -1.382536    2.795571    1.436404
C      -0.083695    3.113436    2.177014
C       0.882597    2.038867    2.618259
C       1.210532    2.901789    1.421369
C       1.008867    2.339371    0.027704
N      -0.087658    3.151087   -0.641459
H      -2.026998    2.060408   -0.536729
H      -1.964577    3.716668    1.325762
H      -2.002654    2.082680    1.993379
H      -0.131919    3.987974    2.816744
H       1.436136    2.210423    3.534827
H       0.631141    0.997071    2.445545
H       1.996186    3.643515    1.518472
H       1.933822    2.216953   -0.538982
H      -0.081477    2.928332   -1.636314
