19

O      -0.334913    0.173936    0.370078
C      -0.044163    1.309911    0.047026
N       1.203879    1.810654   -0.118278
C       2.456082    1.102364   -0.052468
C       2.617712   -0.165737    0.745824
C       2.642455   -0.219190   -0.766560
C       3.611016    2.069154   -0.040264
N       3.363236    3.401681   -0.610786
C       3.650191    3.271379    0.830391
H      -0.810607    2.087495   -0.147063
H       1.298081    2.735871   -0.521091
H       3.552212   -0.287472    1.284869
H       1.738530   -0.563263    1.231424
H       1.771203   -0.644996   -1.248680
H       3.584422   -0.396415   -1.275700
H       4.567169    1.597965   -0.256524
H       4.169456    3.745177   -1.122620
H       2.808906    3.494649    1.479685
H       4.615472    3.603426    1.202019
