18

N       0.007496   -1.151402    0.057888
C      -0.000972    0.003904    0.018096
C      -0.015523    1.460015   -0.013269
C      -0.545065    2.103124    1.298898
O       0.019842    3.397463    1.291709
C       1.360842    3.232430    0.882991
C       2.204414    4.458107    0.854730
C       2.438766    3.399094    1.922339
C       1.392801    2.116235   -0.164366
H      -0.656411    1.777820   -0.840563
H      -1.631852    2.196658    1.324991
H      -0.209670    1.519262    2.168444
H       2.932260    4.562654    0.057105
H       1.733493    5.383699    1.166059
H       2.117343    3.635826    2.930326
H       3.330287    2.784224    1.855109
H       2.192198    1.398626    0.028944
H       1.524684    2.503907   -1.177225
