20

O       0.069291   -0.109309   -0.003547
C      -0.011700    1.088991   -0.025450
C      -1.153937    2.135475   -0.008698
C      -0.022966    3.210743   -0.031438
N       0.930408    2.088632   -0.066269
C       0.026547    4.147981   -1.220040
C      -0.958870    5.351952   -1.253265
C       0.183272    6.222327   -1.843486
C       1.199825    5.166660   -1.331586
H      -1.793052    2.116314   -0.893835
H      -1.770576    2.111450    0.891122
H       0.041954    3.785595    0.902120
H       1.939102    2.055254   -0.045891
H      -0.052195    3.560904   -2.142267
H      -1.876950    5.242016   -1.834924
H      -1.226895    5.672220   -0.240593
H       0.145972    6.250977   -2.936013
H       0.284681    7.245073   -1.474079
H       1.589928    5.432028   -0.342703
H       2.041040    4.906045   -1.978245
