21

O      -0.067086    1.384742   -0.058219
C      -0.015472   -0.035463    0.020902
C      -1.427192   -0.554672   -0.009489
C      -2.332838   -0.416507   -1.267025
C      -3.080879   -1.601529   -0.644108
C      -3.390603   -1.287210    0.888104
C      -2.498647   -2.501275    1.263916
C      -1.746623   -2.119767   -0.019094
C      -2.409949   -0.115656    1.100798
H       0.834506    1.718874   -0.049846
H       0.557201   -0.457663   -0.821209
H       0.479285   -0.364585    0.950614
H      -2.843737    0.537383   -1.428194
H      -1.816996   -0.719642   -2.184221
H      -3.776914   -2.245142   -1.181180
H      -4.408938   -1.186070    1.262970
H      -1.985778   -2.483726    2.231772
H      -3.014258   -3.458347    1.137781
H      -1.050854   -2.773344   -0.546312
H      -1.972258   -0.114940    2.104230
H      -2.830046    0.873794    0.906593
