17

O       0.070052    1.329269   -0.265600
C       0.058449   -0.065882   -0.068832
C      -1.367838   -0.555618    0.227353
O      -2.220648   -0.136803   -0.848353
C      -2.816013   -1.267902   -1.491601
C      -2.324855   -2.456809   -0.707706
C      -2.697820   -3.840474   -1.007572
O      -3.431486   -4.153237   -1.918959
C      -1.518323   -2.044443    0.275572
H      -0.613407    1.508505   -0.923469
H       0.444780   -0.608463   -0.946831
H       0.715790   -0.280603    0.780925
H      -1.708999   -0.071004    1.155477
H      -3.910018   -1.177497   -1.467218
H      -2.514817   -1.314589   -2.546860
H      -2.254689   -4.602775   -0.330474
H      -1.019957   -2.674891    1.002525
