22

C       0.741240    1.403419    0.364761
N       0.125360    0.125482    0.043181
C       0.426582   -0.454419   -1.033104
C      -0.129679   -1.776630   -1.510016
C       0.920909   -2.243173   -2.528755
C       0.433818   -3.248277   -3.568915
C       1.441589   -0.890679   -3.076028
C       0.687234   -0.311510   -4.269186
O       1.328747    0.014881   -1.956854
H       1.008290    1.411368    1.426762
H       1.633156    1.635751   -0.228403
H       0.011878    2.209700    0.215563
H      -0.287275   -2.461932   -0.676637
H      -1.102442   -1.615314   -1.991877
H       1.750030   -2.694565   -1.969735
H      -0.424939   -2.866724   -4.130044
H       1.223004   -3.496418   -4.286850
H       0.124692   -4.180058   -3.085156
H       2.508141   -0.948229   -3.317479
H      -0.390137   -0.263794   -4.081817
H       1.040612    0.703845   -4.467084
H       0.855164   -0.913876   -5.166906
