25

C       0.164409    1.550018    0.016859
C      -0.016976    0.025596   -0.006967
C       0.795826   -0.630406    1.116779
C      -1.497483   -0.397805    0.086059
C      -2.322863   -0.007494   -1.128535
O      -1.830319   -0.618633   -2.349051
C      -3.138457   -1.116977   -2.687868
C      -3.739833   -0.616420   -1.355598
C      -4.253247   -1.685938   -0.399684
H       1.225161    1.814945   -0.044159
H      -0.342727    2.041276   -0.818588
H      -0.229908    1.977786    0.947189
H       0.361126   -0.349449   -0.966460
H       0.442211   -0.300901    2.101680
H       0.715996   -1.722106    1.083160
H       1.856696   -0.368945    1.042366
H      -1.542834   -1.485322    0.212836
H      -1.953757    0.047512    0.982421
H      -2.332455    1.086262   -1.237503
H      -3.536956   -0.642989   -3.594616
H      -3.137862   -2.205694   -2.830998
H      -4.505211    0.152980   -1.488050
H      -3.537976   -2.505856   -0.282722
H      -4.459488   -1.274164    0.593810
H      -5.186766   -2.115745   -0.779060
