14

O       0.070304    1.399280    0.399308
C       0.069598    0.075433   -0.050748
C      -1.369958   -0.578202    0.021794
N      -1.261994   -0.702949   -1.443904
N      -1.652472   -1.371495   -2.560948
C      -0.574052   -1.143485   -3.319295
O      -0.533995   -1.568200   -4.586572
N       0.474968   -0.455188   -2.755513
C      -0.034955   -0.213688   -1.556822
H       0.948513    1.770260    0.263147
H       0.833558   -0.535518    0.447255
H      -1.414061   -1.535229    0.546474
H      -2.160567    0.095040    0.357669
H       0.326649   -1.306489   -4.935854
