19

O      -0.035474    1.351972   -0.144604
C       0.028887   -0.056057    0.005660
C       0.210256   -0.515478    1.482276
C      -1.334357   -0.655066    1.594460
C      -1.409634   -0.615883    0.047279
C      -2.611608    0.016919   -0.723409
C      -2.821771   -1.337482   -1.414712
O      -1.598243   -1.666418   -2.088713
C      -1.694706   -1.938341   -0.686618
H       0.850822    1.704628   -0.014796
H       0.695333   -0.503366   -0.742955
H       0.728574   -1.475712    1.556732
H       0.696074    0.202381    2.148020
H      -1.726530   -1.548325    2.088703
H      -1.796858    0.226490    2.044790
H      -3.427635    0.288343   -0.047698
H      -2.380032    0.856430   -1.381020
H      -3.730714   -1.782903   -1.802293
H      -1.511243   -2.956319   -0.358645
