20

O       0.063162    1.422450   -0.066279
C       0.056140    0.024919    0.031919
C      -0.438411   -0.699786    1.265569
C      -1.045907    0.037345    2.450592
C      -2.045218    1.148968    2.065094
C      -3.043056    0.670178    1.018816
C      -2.952358    1.122827   -0.402301
N      -2.593647   -0.245007   -0.031200
C      -1.246417   -0.750274   -0.021880
H       0.774600    1.754972    0.490859
H       0.879728   -0.449389   -0.503675
H       0.108526   -1.597377    1.541626
H      -1.558138   -0.706508    3.074332
H      -0.251919    0.463460    3.076649
H      -2.587571    1.466842    2.961019
H      -1.499828    2.017964    1.695048
H      -4.025338    0.406936    1.409462
H      -3.851262    1.205507   -1.009429
H      -2.158097    1.818270   -0.649303
H      -1.177025   -1.666333   -0.603103
