16

C       0.021841    1.485443    0.010566
C       0.050035   -0.020234    0.015458
N       0.028955   -0.646959   -1.162691
C       0.053766   -1.986759   -1.147733
N       0.096415   -2.621948   -2.367246
N       0.077428   -2.765153   -0.056178
C       0.098360   -2.128616    1.111076
C       0.092873   -0.742072    1.213428
O       0.117147   -0.172697    2.456743
H       0.917350    1.907360    0.485211
H      -0.020078    1.843059   -1.018522
H      -0.852104    1.875653    0.548239
H      -0.220315   -2.075352   -3.151476
H      -0.179410   -3.590572   -2.357277
H       0.116635   -2.733975    2.014624
H       0.112760    0.785137    2.368799
