17

C       0.015389    1.499837   -0.067662
C       0.023604    0.045390   -0.019569
C       0.014575   -1.158949    0.013527
C       0.050521   -2.615806    0.038207
N       1.000298   -3.232502   -0.890545
C       0.057499   -3.257651    1.459580
O      -1.257926   -3.846597    1.209884
C      -1.311711   -3.315047   -0.051750
N      -2.159306   -3.408843   -0.967034
H       0.714362    1.876023   -0.822628
H      -0.981037    1.878843   -0.319360
H       0.302762    1.932154    0.896959
H       0.590255   -3.207355   -1.820949
H       1.844585   -2.668024   -0.932032
H       0.815494   -4.031014    1.592057
H       0.021828   -2.565173    2.301738
H      -2.947343   -4.000008   -0.698071
