22

C      -1.086959    0.957432   -1.357654
C      -0.383908   -0.167615   -0.627092
C       1.094858   -0.390012   -0.677499
C       2.047125    0.486186   -1.464397
N       0.443874    0.031252    0.573388
C       0.661499    1.356905    1.106894
C      -0.285006    1.754315    2.261669
O       0.826301    1.981019    3.152633
C       1.759021    1.447301    2.190663
H      -0.458364    1.834211   -1.522162
H      -1.423565    0.605087   -2.338564
H      -1.975530    1.282331   -0.804811
H      -1.006037   -1.059123   -0.544830
H       1.431642   -1.425735   -0.628000
H       1.694030    1.510374   -1.595903
H       3.026489    0.530655   -0.974879
H       2.199808    0.060086   -2.461771
H       0.754862    2.151883    0.357905
H      -0.890896    2.657350    2.122430
H      -0.923349    0.926971    2.596189
H       2.147656    0.465697    2.489505
H       2.592320    2.134151    2.001424
