17

N       0.364036    1.289957   -0.028903
C       0.150671   -0.051497    0.238779
O       0.950390   -0.744857    0.837431
N      -1.051100   -0.535227   -0.255938
C      -1.299291   -1.945127   -0.263407
C      -2.488681   -2.595875    0.528550
C      -2.775287   -3.528433   -0.688065
C      -1.943781   -2.541981   -1.522790
O      -1.976869   -2.170812   -2.661434
H       1.119556    1.684409    0.509734
H      -0.439973    1.891099   -0.125384
H      -1.480092   -0.017023   -1.009561
H      -0.367317   -2.462038   -0.011114
H      -2.225666   -3.073608    1.472070
H      -3.297312   -1.880058    0.690985
H      -2.287294   -4.503845   -0.601665
H      -3.808896   -3.672810   -1.006933
