12

O      -0.577317    0.586835    0.614345
C       0.155371    0.911599   -0.275584
C       1.305640    1.916628   -0.075820
C       1.399155    2.527689    1.335049
O       2.585072    1.713597    1.628318
C       2.616904    1.167529    0.391079
O       3.373705    0.398773   -0.089236
C       1.461407    2.786505   -1.222589
N       1.561729    3.471676   -2.148008
H       0.085898    0.500155   -1.299845
H       1.639464    3.589118    1.374558
H       0.572396    2.257822    1.990264
