16

C       0.158411    1.522655   -0.179769
C      -0.073039    0.062539    0.110544
O       0.568264   -0.815570   -0.886484
C       1.344007   -1.424009    0.055967
N       2.240552   -2.292958   -0.004219
C       0.789526   -0.622926    1.236059
N       1.814762    0.189081    1.864113
C      -0.012994   -1.407668    2.181508
N      -0.647340   -1.979670    2.960777
H       1.224158    1.755520   -0.178161
H      -0.271069    1.776049   -1.153262
H      -0.333560    2.136751    0.581375
H      -1.133915   -0.190651    0.173330
H       2.415595   -2.606858   -0.959632
H       1.500497    0.550413    2.758892
H       2.634010   -0.387928    2.031527
