18

C       0.306451    1.530642    0.307206
C       0.004497    0.089032    0.124360
C      -1.122806   -0.645336   -0.072707
C      -2.545916   -0.213104   -0.206758
C      -3.091152   -0.419877   -1.630679
O      -4.446242   -0.023066   -1.754535
N      -0.769534   -1.995377   -0.172246
C       0.512166   -2.002649   -0.031228
O       1.066900   -0.784886    0.154548
H       0.962352    1.908324   -0.485199
H      -0.618168    2.111299    0.286611
H       0.806013    1.717409    1.264417
H      -3.163593   -0.793626    0.491526
H      -2.657760    0.841001    0.065972
H      -2.529786    0.204261   -2.333775
H      -2.940916   -1.466969   -1.928996
H      -4.979600   -0.635681   -1.238239
H       1.184762   -2.846203   -0.040182
