20

C       0.086694    1.554528   -0.561427
C       0.008661    0.150600    0.018325
N       0.931863   -0.860810   -0.569726
C       1.379313   -1.365405    0.761111
C       2.858242   -1.550318    0.947012
C       3.369128   -2.333813    2.130095
C       3.491383   -2.906982    0.742619
C       0.692275   -0.122474    1.370653
O       0.730066    0.435900    2.425393
H       1.125797    1.890896   -0.608294
H      -0.328172    1.582622   -1.573829
H      -0.481126    2.251637    0.062772
H      -1.040753   -0.183297    0.067807
H       0.482742   -1.555910   -1.154381
H       0.846641   -2.271780    1.096255
H       3.446497   -0.691992    0.637569
H       4.264295   -1.977842    2.626564
H       2.638251   -2.772892    2.800934
H       2.843097   -3.735322    0.475043
H       4.472362   -2.946195    0.282770
