21

C      -0.162201    1.437663    0.028639
C       0.036370   -0.072786    0.050481
C       0.844680   -0.612558   -1.133356
C       2.146636   -0.518981   -0.369570
C       1.237424   -0.541250    0.921329
C       1.227085   -2.091011    0.782017
O       0.045681   -2.817572    1.046549
C       1.569878   -1.888603   -0.683137
C       2.055631   -2.928562   -1.648346
H       0.781722    1.958869   -0.166346
H      -0.873704    1.731882   -0.750975
H      -0.554782    1.795729    0.987023
H      -0.907617   -0.585922    0.265305
H       0.684037   -0.426556   -2.189115
H       3.109545   -0.088212   -0.600506
H       1.455927   -0.063208    1.875852
H       2.089016   -2.529482    1.306996
H      -0.035850   -2.931442    1.998827
H       1.259228   -3.639569   -1.894531
H       2.395466   -2.472707   -2.584495
H       2.894764   -3.497603   -1.231636
