14

N      -0.013519   -1.124396    0.079849
C       0.015157    0.030855    0.042982
C       0.030302    1.468036   -0.051916
C      -0.939321    2.145739   -1.030897
C      -0.193997    3.392541   -1.454696
C       1.040901    3.439956   -0.947617
C       1.297877    2.289793   -0.031278
N       0.440255    2.191121    1.162251
H      -1.143275    1.488486   -1.884502
H      -1.908654    2.361466   -0.564879
H      -0.647169    4.149631   -2.083571
H       1.774289    4.216190   -1.127204
H       2.283280    1.849497    0.073461
H      -0.117002    3.038407    1.261629
