19

C       0.173484    1.354580   -0.286935
C       0.042915   -0.045592    0.312729
O       0.441805   -0.093713    1.676963
C      -1.372449   -0.611719    0.145909
C      -2.469437    0.070848    0.936565
O      -1.710826   -0.967349   -1.192877
C      -1.591206   -2.033466   -0.237475
C      -0.488381   -3.015786   -0.466173
O      -0.511876   -4.135336   -0.022014
H       1.210087    1.693736   -0.213698
H      -0.121698    1.348673   -1.339963
H      -0.459482    2.079546    0.237911
H       0.739555   -0.703260   -0.213089
H       0.097634    0.688773    2.119956
H      -2.542624    1.130762    0.673505
H      -3.435509   -0.393139    0.727889
H      -2.269880   -0.008314    2.009145
H      -2.527457   -2.498136    0.070162
H       0.346291   -2.649370   -1.100580
