14

N      -0.178606    1.435922    0.028385
C      -0.082268    0.010219    0.029905
C       1.027474   -0.599160   -0.683587
N       1.934468   -1.038959   -1.252051
C      -0.535034   -0.798432    1.232517
O      -1.555301   -0.089329    1.947524
C      -2.391182   -0.158627    0.826229
N      -3.581429    0.180553    0.669777
C      -1.364455   -0.849310   -0.022287
H       0.657651    1.864135    0.411278
H      -0.320655    1.792133   -0.910764
H       0.057979   -1.529329    1.763903
H      -3.968864    0.601608    1.515400
H      -1.524941   -1.612602   -0.768454
