15

C      -0.193562    1.503023   -0.542817
C      -0.052320    0.098840   -0.001992
C       0.883080   -0.855799   -0.668619
N       1.197182   -0.323071    0.664859
C      -1.323888   -0.464970    0.609528
N      -1.113255   -1.409422    1.564824
O      -2.424378   -0.106667    0.230879
H       0.706359    1.804765   -1.087907
H      -1.052503    1.556325   -1.214657
H      -0.365106    2.219273    0.267771
H       0.649861   -1.916039   -0.693091
H       1.444028   -0.488971   -1.524248
H       1.892055    0.416307    0.600136
H      -0.186052   -1.506796    1.948768
H      -1.911918   -1.769703    2.059368
