18

C      -0.006904    1.496721    0.039618
C       0.015950   -0.021871    0.021767
O       0.699113   -0.474102    1.174453
C       0.778850   -1.876810    1.259812
C       1.517475   -2.235569    2.504839
C       2.058850   -1.426670    3.445221
O       2.634816   -2.220498    4.403001
C       2.402802   -3.478632    3.974137
N       1.748627   -3.561168    2.862384
H       1.011451    1.895555    0.040129
H      -0.529833    1.880096   -0.841473
H      -0.519355    1.861993    0.934085
H      -1.010376   -0.425730    0.007512
H       0.520341   -0.392235   -0.886568
H      -0.226294   -2.332804    1.276558
H       1.297159   -2.300232    0.381921
H       2.124072   -0.363459    3.584718
H       2.778376   -4.280168    4.590586
