18

C      -0.068289    1.521051   -0.001041
C      -0.011142    0.007012   -0.026587
C      -1.258915   -0.657707   -0.574861
C       1.307250   -0.655728   -0.253691
C       0.710495   -0.692028    1.167210
C       1.325903    0.096610    2.200951
C       1.839720    0.750432    3.068755
C       0.183675   -1.957982    1.620940
N      -0.244488   -2.972562    1.975205
H       0.833319    1.957737    0.432044
H      -0.179459    1.901410   -1.022334
H      -0.926663    1.869313    0.582579
H      -1.416069   -0.343869   -1.612619
H      -1.190342   -1.747444   -0.556235
H      -2.142720   -0.365993    0.001716
H       1.334095   -1.601517   -0.783206
H       2.192441   -0.040048   -0.364558
H       2.292608    1.323040    3.840150
