22

C      -0.149876    1.525553   -0.018367
C       0.012777   -0.001662   -0.029905
C       0.817791   -0.404846   -1.262892
O       0.852099   -1.802136   -1.569123
C       1.484570   -2.675934   -0.735896
N       1.483370   -2.798063    0.516965
C       0.659993   -2.025849    1.444296
C       1.081007   -2.406802    2.868485
C       0.668553   -0.499640    1.262263
H       0.823274    2.026374    0.047233
H      -0.649140    1.883209   -0.924889
H      -0.744632    1.847400    0.841447
H      -0.982883   -0.458757   -0.118646
H       0.389215    0.051093   -2.159704
H       1.851124   -0.041964   -1.160334
H       2.035507   -3.404444   -1.334102
H      -0.378485   -2.364670    1.296547
H       2.099935   -2.060334    3.071999
H       0.410456   -1.963626    3.611728
H       1.068809   -3.492893    2.986743
H       1.705131   -0.136741    1.313438
H       0.143720   -0.058733    2.118522
