17

O      -0.036447    0.000189    0.127303
C      -0.036349    1.198536    0.002526
C      -1.267523    2.063318   -0.180185
O      -1.280443    3.141506    0.778625
C      -0.819830    3.424417   -0.542850
C       0.698041    3.488905   -0.634909
C       1.412880    4.209819    0.548106
C       1.682358    2.830961    1.216898
C       1.182572    2.114306   -0.085443
H      -2.229293    1.627296   -0.431407
H      -1.451786    4.098073   -1.116550
H       1.012493    3.765102   -1.643970
H       2.327512    4.717066    0.233339
H       0.800016    4.910173    1.118417
H       2.720473    2.620949    1.480454
H       1.050586    2.636789    2.083985
H       1.978258    1.618226   -0.642138
