25

C      -1.723654    0.199573   -0.621523
C      -0.214222    0.214846   -0.349857
C       0.685178   -0.536042   -1.341121
C       0.762282    0.102421   -2.757059
C       2.207589    0.464809   -2.374384
O       2.073865   -0.139021   -1.075089
C       0.629145   -2.079158   -1.340719
C       0.967590   -2.659071    0.039210
C      -0.663901   -2.684755   -1.907187
H      -1.950878    0.469937   -1.658654
H      -2.176831   -0.774551   -0.426525
H      -2.226825    0.926962    0.023119
H       0.135306    1.253701   -0.358741
H      -0.010385   -0.155059    0.661177
H       0.658627   -0.596347   -3.589124
H       0.095436    0.951068   -2.919798
H       2.993056   -0.014605   -2.972098
H       2.427997    1.537629   -2.307346
H       1.443127   -2.370127   -2.018691
H       0.161421   -2.484138    0.760318
H       1.117517   -3.741656   -0.025929
H       1.883849   -2.209428    0.430323
H      -1.495594   -2.618398   -1.200899
H      -0.974160   -2.199837   -2.838569
H      -0.512005   -3.747193   -2.124512
