19

O       0.001122   -0.082456   -0.130559
C      -0.013387    1.121845   -0.031122
C      -1.304839    1.928582    0.065390
C      -1.150675    3.074604    1.088089
C      -0.776003    2.562740    2.498444
C       0.778573    2.583137    2.477592
C       1.101733    3.104221    1.057896
C       1.258520    1.962308    0.031008
O      -0.039923    3.884299    0.699982
H      -1.503449    2.374204   -0.917664
H      -2.131266    1.255365    0.308640
H      -2.037588    3.712112    1.083804
H      -1.164336    3.237739    3.264050
H      -1.183931    1.568405    2.695957
H       1.169465    3.268308    3.232788
H       1.217587    1.599899    2.663683
H       1.971142    3.764829    1.030090
H       2.108596    1.311147    0.251765
H       1.418904    2.412668   -0.956854
