16

O      -0.056725    1.363570    0.076376
C      -0.018060   -0.022768    0.025464
C      -0.471548   -0.706864   -1.263260
C      -1.321163   -0.771012   -0.025529
O      -1.370275   -2.024783    0.617628
C      -0.502801   -2.099552    1.697117
O       0.866047   -1.876580    1.316293
C       1.098151   -0.636877    0.801646
N       2.184450   -0.002536    0.932447
H       0.866427    1.636263    0.189062
H      -0.776717   -0.030232   -2.052780
H       0.014547   -1.625336   -1.571176
H      -2.246030   -0.204171    0.027218
H      -0.762683   -1.370906    2.479033
H      -0.541300   -3.117276    2.085548
H       2.852894   -0.518213    1.505075
