24

C      -1.667222   -0.565042   -0.556121
C      -0.196056   -0.219969   -0.294814
C       0.794626   -0.575627   -1.430454
O       0.424675    0.104966   -2.639056
C       2.209777   -0.060105   -1.097559
C       2.332772    1.455873   -0.905904
C       0.814955   -2.104530   -1.675352
C       1.726392   -2.574454   -2.814244
H      -2.038210   -0.082716   -1.468154
H      -1.841044   -1.641205   -0.646423
H      -2.292148   -0.203715    0.266210
H      -0.127098    0.856312   -0.112375
H       0.136648   -0.716610    0.625481
H      -0.439040   -0.220725   -2.911403
H       2.566544   -0.584726   -0.202565
H       2.870879   -0.355488   -1.917703
H       1.895364    1.985243   -1.755955
H       1.836697    1.804763    0.004635
H       3.386305    1.742808   -0.830228
H       1.089639   -2.607924   -0.739583
H      -0.210093   -2.427460   -1.897684
H       1.539409   -1.990770   -3.719932
H       2.786241   -2.474681   -2.563767
H       1.543204   -3.629139   -3.041663
