19

C      -0.176855    1.407534    0.032489
N       0.046016   -0.029700   -0.038243
C       0.904448   -0.482192   -1.185619
C       2.177150   -0.322624   -0.320608
C       1.169676   -0.523290    0.841789
C       0.936540   -1.999394    1.025669
N       0.970027   -2.561021    2.157297
O       0.729634   -2.688934   -0.135872
C       0.582327   -1.957016   -1.369885
H       0.731101    2.028318   -0.065524
H      -0.871454    1.698915   -0.762081
H      -0.647086    1.647386    0.991109
H       0.799381    0.071989   -2.122523
H       2.989336   -1.044390   -0.438478
H       2.578953    0.690484   -0.348190
H       1.305011   -0.025724    1.800767
H       0.798138   -3.564295    2.058998
H      -0.453899   -2.073761   -1.704823
H       1.252075   -2.427335   -2.098453
