17

C       0.095365    1.359118   -0.555616
C      -0.107423    0.146761    0.367364
C      -1.457894   -0.485286    0.212640
N      -2.316878   -0.453447    1.204286
O      -3.460768   -1.106225    0.738333
C      -3.255182   -1.514737   -0.526988
C      -4.373730   -2.238338   -1.189462
C      -2.006130   -1.153025   -0.923128
H       1.092589    1.786543   -0.415475
H      -0.005852    1.080728   -1.609392
H      -0.643026    2.137681   -0.342738
H       0.664848   -0.604010    0.159715
H       0.008875    0.445456    1.413118
H      -4.634248   -3.147181   -0.637131
H      -5.271699   -1.613492   -1.235448
H      -4.092674   -2.518135   -2.206415
H      -1.540888   -1.335943   -1.877814
