22

C       0.000207    1.561256   -0.103409
C      -0.014659    0.037437    0.019345
N       0.683603   -0.461015    1.205005
C      -0.016793   -0.155567    2.449128
C       0.844416   -0.518232    3.671047
C       1.321711   -1.959758    3.606107
O       1.263812   -2.718580    4.545054
C       1.876742   -2.357533    2.248068
C       0.954430   -1.892284    1.109580
H       1.024898    1.939321   -0.042364
H      -0.423608    1.860468   -1.066953
H      -0.591350    2.050824    0.675504
H      -1.059017   -0.330577   -0.020529
H       0.493181   -0.386906   -0.853990
H      -0.248575    0.911563    2.481021
H      -0.983587   -0.695854    2.509276
H       1.732288    0.127489    3.673403
H       0.300265   -0.361642    4.605253
H       2.850571   -1.865136    2.128328
H       2.029334   -3.438974    2.224557
H       0.019696   -2.488275    1.132570
H       1.434478   -2.094331    0.146767
