19

O       0.216063    1.337863   -0.267308
C       0.019159   -0.041859   -0.033475
C       0.749532   -0.452412    1.259275
O       0.475783    0.457110    2.322598
C      -0.816883    0.400911    2.867913
O      -1.799197    0.969695    2.034289
C      -2.343877    0.065068    1.104869
C      -2.540828    0.545799   -0.297908
C      -1.456513   -0.462566    0.007964
H       0.126454    1.769410    0.593268
H       0.492408   -0.563463   -0.874679
H       0.479830   -1.479299    1.549043
H       1.831535   -0.399923    1.110010
H      -1.082324   -0.640063    3.115722
H      -0.782649    1.013635    3.771505
H      -3.091795   -0.598946    1.536884
H      -3.428994    0.228492   -0.832212
H      -2.189013    1.545957   -0.520702
H      -1.624178   -1.493425   -0.292728
