16

N      -0.152450    1.282092   -0.009272
C      -0.032650    0.015706   -0.016756
C       1.180436   -0.945090   -0.024214
N       0.655003   -2.323764   -0.031409
C      -0.616650   -2.173743   -0.028364
C      -1.791471   -3.043539   -0.031403
C      -2.887083   -2.268714   -0.025056
C      -2.534578   -0.793850   -0.017171
N      -1.093269   -0.865052   -0.020045
H       0.764184    1.727407   -0.008237
H       1.809375   -0.769074   -0.905174
H       1.812085   -0.779298    0.856811
H      -1.745700   -4.122303   -0.037712
H      -3.913738   -2.610995   -0.025333
H      -2.924934   -0.263846   -0.896621
H      -2.921926   -0.274025    0.869654
