14

N      -0.069258   -1.207928   -0.058775
C      -0.009957   -0.054351   -0.007381
C       0.078170    1.396189    0.073477
C      -0.128903    1.957616    1.519562
C       1.421009    2.057316    1.671015
C       1.547194    1.933767    0.120559
C       1.969198    3.241725    2.307570
N       2.392451    4.199196    2.798184
H      -0.558592    1.835017   -0.696883
H      -0.597402    2.942248    1.490236
H      -0.653180    1.322402    2.232553
H       1.819193    1.166078    2.163259
H       2.331613    1.279932   -0.258790
H       1.618545    2.910718   -0.359367
