12

O       0.031940    0.071732   -0.060772
C       0.008830    1.268286   -0.054926
C      -1.072922    2.301008    0.095970
C      -0.073754    3.161902    0.831965
C       1.084072    2.368562    0.104387
C       0.770646    3.275400   -1.094921
N      -0.573656    3.596923   -0.477743
H      -2.138850    2.196659    0.241153
H      -0.171079    3.684271    1.772957
H       2.082522    2.126554    0.456818
H       1.351857    4.199578   -1.120712
H       0.733436    2.822681   -2.091841
