17

N      -0.090410    1.168136   -0.822333
C      -0.055710    0.081540   -0.156827
C      -1.356316   -0.629022    0.125102
C      -1.577082   -1.123283    1.553155
O      -0.760375   -2.237719    1.856811
C       0.541283   -1.926135    2.270304
C       1.541828   -1.397112    1.239346
O       2.719089   -1.665765    1.362985
N       1.153370   -0.528069    0.227754
H       0.845861    1.545763   -0.986949
H      -2.149552    0.064058   -0.161871
H      -1.417535   -1.504086   -0.534248
H      -1.421110   -0.315676    2.285523
H      -2.610232   -1.468932    1.651764
H       0.530008   -1.186836    3.091160
H       0.986908   -2.843449    2.658465
H       1.975556   -0.160790   -0.237995
