17

N      -0.176270    1.297861   -0.090541
C       0.058651   -0.043780   -0.028460
O       1.145929   -0.570088   -0.011616
O      -1.122575   -0.718679   -0.020991
C      -0.997741   -2.143933   -0.010444
C      -2.407841   -2.715273   -0.001392
C      -2.378834   -4.255713    0.009254
C      -3.719308   -4.836223    0.021970
N      -4.785712   -5.280691    0.032371
H       0.607935    1.899402    0.090322
H      -1.100057    1.644771    0.100757
H      -0.435196   -2.469556   -0.892678
H      -0.428714   -2.456750    0.872266
H      -2.947041   -2.350239    0.878191
H      -2.953353   -2.362253   -0.881897
H      -1.845364   -4.634831   -0.870638
H      -1.834306   -4.622572    0.887604
