21

C       0.483211    1.399245    0.485271
C       0.074015   -0.012787    0.064903
C       0.742418   -0.448228   -1.233181
O       0.426375   -1.005324    1.036816
C      -0.274273   -0.951561    2.225688
C       0.146977   -1.896524    3.294176
C       0.374952   -0.397462    3.502780
C       1.706107    0.125704    3.491575
C       2.820263    0.580493    3.499233
H       1.563003    1.451956    0.647570
H       0.207008    2.114431   -0.296519
H      -0.012524    1.703899    1.410518
H      -1.021006   -0.041151   -0.066985
H       1.830885   -0.437251   -1.119941
H       0.435114   -1.462314   -1.501383
H       0.472144    0.228253   -2.049177
H      -1.340166   -0.744919    2.116967
H      -0.607134   -2.388513    3.897590
H       1.033230   -2.484197    3.086150
H      -0.304794    0.094963    4.193279
H       3.806088    0.973799    3.505900
