18

O       0.309085    1.154817    0.085594
C      -0.031530   -0.181865    0.207750
C      -0.770468   -0.723336    1.391051
C      -1.467232   -0.686501    0.021088
C      -2.429029    0.375642   -0.130669
N      -3.142841    1.278573   -0.261508
C      -1.763540   -1.927031   -0.779109
C      -1.205652   -3.279503   -0.413615
C      -2.676465   -3.002188   -0.242071
H      -0.491817    1.694675    0.085252
H       0.729132   -0.816912   -0.235068
H      -0.495559   -1.693198    1.789335
H      -1.123781   -0.012294    2.129221
H      -1.843369   -1.728237   -1.844152
H      -0.889279   -3.920498   -1.228626
H      -0.601167   -3.380879    0.480792
H      -3.045846   -2.881105    0.770441
H      -3.380544   -3.465278   -0.923393
