19

C      -0.079230    1.613124    0.068403
C       1.465346    1.450931    0.026641
C       1.249737    0.160400    0.879596
C      -0.060086    0.059976    0.034748
C       0.536856   -0.233299   -1.348488
O      -0.292755    0.149537   -2.437823
C       0.515420    0.941470   -3.278870
O       1.383216    1.677767   -2.446730
C       1.694418    0.822219   -1.354641
H      -0.423715    1.996524    1.030973
H      -0.564424    2.140438   -0.753302
H       2.145645    2.245310    0.331777
H       1.985424   -0.646910    0.794289
H       1.057088    0.377807    1.931930
H      -0.911905   -0.542694    0.348030
H       0.868645   -1.271978   -1.464192
H       1.093230    0.303752   -3.973248
H      -0.118236    1.633105   -3.841457
H       2.697475    0.395633   -1.473915
