21

O       0.111780    1.434865   -0.135696
C       0.059446    0.044777    0.099036
C      -1.378604   -0.472182   -0.003231
O      -1.937819   -0.030063   -1.249371
C      -1.492375   -1.980746    0.154730
C      -1.206121   -2.640958    1.551386
C      -2.589728   -3.302302    1.499721
C      -3.655189   -2.249731    1.405800
C      -2.891472   -2.617127    0.163968
H      -0.512366    1.589474   -0.857502
H       0.691281   -0.509970   -0.620601
H       0.467209   -0.139390    1.099041
H      -1.980513    0.038528    0.756800
H      -1.551118   -0.569918   -1.949356
H      -0.864346   -2.460072   -0.607808
H      -0.373106   -3.345515    1.514861
H      -1.043032   -1.955199    2.390442
H      -2.808663   -4.316461    1.809955
H      -4.676459   -2.615853    1.433064
H      -3.522804   -1.283695    1.887362
H      -3.395302   -3.015351   -0.708207
