20

C       0.025503    1.590359    0.012182
C      -0.015237    0.054675    0.004365
C       0.568001   -0.471556   -1.318666
C       0.406401   -1.936937   -1.612397
C       0.286191   -2.959611   -0.753730
C       0.326183   -2.966328    0.706209
C       0.514166   -1.952439    1.562876
C       0.689945   -0.490288    1.259891
H       1.059048    1.955479   -0.030370
H      -0.508577    2.007951   -0.847456
H      -0.431784    1.996463    0.920205
H      -1.065550   -0.261173    0.052190
H       0.099073    0.085541   -2.140665
H       1.635419   -0.204272   -1.375806
H       0.384191   -2.183452   -2.672316
H       0.166435   -3.947036   -1.195127
H       0.213590   -3.955387    1.145713
H       0.544929   -2.203833    2.621255
H       1.764539   -0.254241    1.202653
H       0.326028    0.076319    2.126826
