20

C      -0.078076    1.466505    0.022186
C       0.119528   -0.018158   -0.030610
C       0.035197   -0.881645   -1.283845
C      -0.252273   -2.017085   -0.295082
C       1.052507   -2.205382    0.504894
O       2.284203   -2.376464   -0.159299
C       0.768109   -0.825874    1.057544
C       1.314709   -0.272360    2.338066
N      -0.718434   -0.984682    0.778194
H       0.793862    1.988656   -0.388452
H      -0.954140    1.756466   -0.567381
H      -0.234907    1.819047    1.044686
H      -0.851110   -0.620747   -1.869248
H       0.910826   -0.975429   -1.932070
H      -0.898496   -2.856801   -0.544959
H       0.911988   -2.951855    1.298963
H       2.416164   -3.314985   -0.325909
H       2.373557   -0.016058    2.222004
H       0.779625    0.626195    2.654276
H       1.231059   -1.010341    3.143004
