21

O      -0.157874    1.562912   -0.002364
C      -0.082781    0.152296   -0.033490
C       0.312333   -0.580406    1.289833
C      -0.829322   -1.596777    1.003176
C      -1.476399   -0.516960    0.084867
C      -0.361801   -2.878985    0.291257
C      -0.034875   -2.769416   -1.214780
C       0.772273   -1.581396   -1.686362
C       0.728867   -0.337429   -1.209706
H       0.739409    1.913352   -0.021480
H       1.332373   -0.965321    1.372051
H       0.080814    0.055032    2.149390
H      -1.419723   -1.873878    1.879729
H      -2.144056    0.139832    0.647458
H      -1.970367   -0.828619   -0.837575
H       0.518525   -3.260507    0.824076
H      -1.134830   -3.649523    0.396709
H       0.483831   -3.687087   -1.515081
H      -0.975934   -2.783870   -1.783584
H       1.416135   -1.771034   -2.542588
H       1.340363    0.426287   -1.687908
