16

O      -0.150088    0.069203    0.013732
C       0.001082    1.245667   -0.010850
O      -0.987369    2.226773    0.074139
C      -0.064973    3.320634   -0.197088
C       0.397206    4.053480    1.081262
C       1.556966    3.036834    1.217575
C       2.854913    3.315178    0.397320
N       2.440171    2.287615   -0.598895
C       1.105980    2.279138   -0.083956
H      -0.351411    3.862393   -1.098335
H       0.712034    5.088427    0.922955
H      -0.343807    4.025789    1.882948
H       1.699795    2.509543    2.158707
H       2.903609    4.341349    0.009520
H       3.801369    3.079094    0.891865
H       2.567672    2.493679   -1.583939
