21

C       0.757509    1.646034   -0.093500
C       0.024145    0.303771    0.025421
C       0.100042   -0.479301   -1.295042
C      -0.626101   -1.845304   -1.306078
C       0.157378   -2.932129   -0.592139
O       0.673713   -3.857798   -1.174077
C       0.287991   -2.832246    0.933138
O      -0.197492   -1.648488    1.513429
C       0.560758   -0.481425    1.228970
H       1.826994    1.497659   -0.284542
H       0.354874    2.242251   -0.918004
H       0.661699    2.236215    0.823765
H      -1.036035    0.503007    0.235594
H      -0.339272    0.139298   -2.085690
H       1.151404   -0.627252   -1.578474
H      -1.609843   -1.737249   -0.832982
H      -0.766791   -2.185190   -2.334998
H      -0.295551   -3.656046    1.361041
H       1.342429   -3.016559    1.191136
H       1.621344   -0.741129    1.077174
H       0.504072    0.147178    2.125155
