14

O       0.003950    1.394476    0.010011
C       0.062010    0.049158   -0.078526
C       0.063657   -0.753051   -1.194982
O      -0.024597   -0.717599   -2.544338
C       0.268303   -2.071625   -2.983984
C       0.055618   -3.002442   -1.752327
N       0.146528   -2.004894   -0.704036
N       0.179016   -2.030745    0.638425
N       0.134511   -0.765739    1.005683
H       0.019943    1.605454    0.952105
H      -0.392761   -2.303244   -3.819460
H       1.309505   -2.105085   -3.321164
H      -0.925795   -3.487293   -1.745881
H       0.833310   -3.763227   -1.665876
