16

C       0.014418    1.531806   -0.225371
C      -0.014426    0.026668    0.084956
C      -1.410939   -0.539934    0.061831
C      -1.834130   -1.449690   -0.907406
N      -3.076711   -1.944832   -0.940670
C      -3.882321   -1.521042    0.000888
F      -5.123790   -1.991446   -0.000225
C      -3.499012   -0.613279    0.989786
N      -2.265288   -0.127878    1.014024
H       1.033451    1.922663   -0.153113
H      -0.356402    1.733793   -1.235433
H      -0.616015    2.076557    0.482414
H       0.610388   -0.518343   -0.630654
H       0.412107   -0.144289    1.079884
H      -1.154456   -1.794469   -1.682243
H      -4.200765   -0.292341    1.754089
