19

C      -0.011134    1.387159   -0.007150
O      -0.025109   -0.020397    0.037918
C       0.710243   -0.541849    1.120298
C       0.616354   -2.062502    1.053382
C       1.387209   -2.763656    2.203617
C       0.686877   -2.479132    3.537884
O       1.103656   -1.721690    4.371330
C       1.454016   -4.205901    2.001363
C       1.469183   -5.399949    1.864086
H       1.010813    1.782169   -0.120749
H      -0.605691    1.691863   -0.871593
H      -0.449802    1.829535    0.901109
H       1.765749   -0.222236    1.064308
H       0.314985   -0.162674    2.077430
H      -0.436662   -2.364605    1.077454
H       1.021388   -2.408006    0.098252
H       2.396888   -2.342612    2.278022
H      -0.272361   -3.028293    3.664885
H       1.503361   -6.453534    1.733976
