9

C      -0.014821    1.392412    0.005671
O      -0.004715   -0.013607    0.014597
C       0.637949   -0.553297   -1.113582
H       1.005284    1.810158    0.004656
H      -0.546896    1.793435   -0.872511
H      -0.530029    1.722920    0.911017
H       0.139938   -0.255993   -2.050984
H       1.692653   -0.238684   -1.174777
H       0.599594   -1.641802   -1.024076
