19

C       1.617776    0.597230   -1.895763
C       1.852637   -0.739478   -1.226263
O       3.251378   -1.057494   -0.934905
C       2.882152   -1.505758    0.369853
C       2.427883   -0.341642    1.218819
C       3.041301    1.006947    1.116737
O       2.967022    1.836644    1.993711
C       1.464764   -1.037328    0.225173
C       0.148557   -1.600706    0.673999
H       2.180574    0.648514   -2.833389
H       0.554672    0.705514   -2.136038
H       1.914906    1.439754   -1.268578
H       1.454663   -1.543237   -1.862502
H       3.335711   -2.413964    0.750612
H       2.161822   -0.601448    2.240566
H       3.618422    1.196533    0.191018
H      -0.627460   -0.827313    0.699235
H      -0.187630   -2.393694   -0.003410
H       0.220366   -2.026997    1.678907
