19

C      -0.089953    1.566097    0.047220
C       0.023105    0.056325   -0.064054
C      -1.103065   -0.679939    0.642189
C       0.581328   -0.660373   -1.238028
C       1.754896    0.030799   -1.909512
O       1.428350    1.182893   -2.660306
C       2.398975    0.149931   -0.498550
N       1.301569   -0.671662    0.121193
H       0.575808    2.100600   -0.627508
H      -1.112610    1.869127   -0.200138
H       0.105541    1.883269    1.078752
H      -2.067167   -0.457250    0.172384
H      -0.938774   -1.759858    0.616392
H      -1.157798   -0.372894    1.692100
H       0.101363   -1.551646   -1.632593
H       2.314927   -0.683894   -2.525726
H       2.220641    1.476813   -3.121175
H       3.352323   -0.374177   -0.401324
H       2.500996    1.159426   -0.091870
