20

C      -0.005216    1.597934   -0.076023
C      -0.036890    0.068638   -0.110417
C      -1.447092   -0.502780    0.112527
C      -1.457342   -2.004773    0.127759
C      -1.584815   -2.891747   -1.120441
C      -2.565402   -3.038217    0.001497
N      -1.990210   -3.795148    1.118983
C      -0.898766   -2.907991    1.224697
O       0.069852   -2.912121    1.931658
H       1.008174    1.977470   -0.238226
H      -0.649914    2.027682   -0.851386
H      -0.352120    1.979889    0.890560
H       0.345900   -0.290279   -1.074108
H       0.631043   -0.339888    0.656227
H      -1.843101   -0.127798    1.065420
H      -2.125524   -0.137307   -0.669599
H      -1.929957   -2.362283   -2.005260
H      -0.866924   -3.682869   -1.318662
H      -3.633131   -2.876512   -0.065912
H      -1.875615   -4.803193    1.111379
