20

C      -0.081788    1.634396    0.450779
C       0.067963    0.145217    0.195094
C       0.813287   -0.452300   -1.027139
C       2.096207   -0.010591   -0.293422
N       1.255997   -0.608111    0.860478
C       0.928546   -1.743361   -0.141725
C      -0.284209   -2.633513    0.158698
C       2.069327   -2.700715   -0.442752
O       3.078785   -2.840065    0.195930
H       0.765763    2.244154    0.133942
H      -0.969156    2.002366   -0.075512
H      -0.237870    1.805142    1.521189
H      -0.881142   -0.327732    0.447744
H       0.561948   -0.385064   -2.092918
H       3.026219   -0.542685   -0.479763
H       2.288269    1.054461   -0.185283
H      -1.244605   -2.157926   -0.042723
H      -0.245866   -3.543752   -0.449526
H      -0.259747   -2.937109    1.210055
H       1.863704   -3.337910   -1.337415
