22

C      -0.127421    1.523752    0.076683
C       0.099435    0.044663    0.026369
N      -0.770048   -0.906915    0.764925
C       0.698972   -0.908125    1.002222
C       1.296952   -1.766937   -0.113308
C       0.685593   -0.756018   -1.157424
C      -0.279740   -1.267750   -2.219303
C       0.393446   -2.149906   -3.262917
O      -0.592653   -2.543355   -4.207040
H       0.744660    2.069546   -0.300106
H      -0.991066    1.815930   -0.532769
H      -0.315172    1.859856    1.102693
H      -1.194130   -0.381930    1.530339
H       1.093716   -0.731631    1.996236
H       2.388939   -1.781788   -0.125256
H       0.915832   -2.791193   -0.153117
H       1.493421   -0.178285   -1.622221
H      -1.085173   -1.830228   -1.737317
H      -0.746673   -0.420644   -2.738383
H       1.210617   -1.593429   -3.752971
H       0.847672   -3.027354   -2.774558
H      -0.178665   -3.130728   -4.845838
