15

O       0.591069    0.796508   -0.851515
C       0.099439   -0.214744   -0.032098
C       0.088372   -0.051918    1.510163
C      -1.256754   -0.822959    1.547475
O      -2.250431   -0.477827    2.458133
C      -1.454587   -0.500966    0.012588
C      -2.213263    0.720125   -0.168524
N      -2.765256    1.734524   -0.252819
H       0.113838    1.613189   -0.660200
H       0.615425   -1.129414   -0.332982
H       0.930255   -0.445527    2.081409
H      -0.066721    0.998978    1.781688
H      -1.097553   -1.897625    1.662072
H      -2.466690    0.455887    2.345305
H      -1.844004   -1.294607   -0.627341
