16

C      -0.004856    1.454480   -0.048059
N      -0.022942   -0.012378   -0.069867
C      -1.255807   -0.671128   -0.059586
O      -2.306949   -0.074226   -0.092779
C      -1.151214   -2.180976    0.012173
C       0.135388   -2.645951   -0.640756
O       1.259377   -1.982388   -0.048039
C       1.223664   -0.641172    0.089914
O       2.219892   -0.020322    0.341127
H       0.717553    1.820354   -0.778249
H      -1.008482    1.796655   -0.289929
H       0.287368    1.818684    0.939715
H      -1.167933   -2.478625    1.067583
H      -2.033686   -2.606779   -0.469076
H       0.315784   -3.711326   -0.490544
H       0.126897   -2.443484   -1.719221
