15

N       0.197949    1.368938    0.279990
C      -0.167912   -0.013394   -0.048935
C      -1.696027   -0.105425   -0.240071
N      -2.373441    0.344267    0.954113
C      -3.275703   -0.425390    1.623727
O      -3.658593   -1.519843    1.271016
C       0.532580   -0.539064   -1.237358
N       1.091069   -0.906559   -2.180514
H       1.167142    1.417572    0.578357
H       0.121870    1.952538   -0.549343
H       0.102184   -0.641110    0.807256
H      -1.983127    0.499476   -1.110522
H      -2.004707   -1.134936   -0.428705
H      -2.053889    1.210286    1.361094
H      -3.635160    0.075555    2.543613
