17

C       0.152661    1.554252    0.056957
O       1.210379    0.607384   -0.091982
C      -0.130174    0.113226    0.013709
C      -0.471637   -0.680263    1.239830
C      -1.970237   -1.001301    1.517749
C      -1.540748   -2.416677    1.989506
C      -0.194352   -2.212774    1.244619
H       0.124451    2.076990    1.012738
H      -0.048861    2.175031   -0.815327
H      -0.520781   -0.293165   -0.922846
H      -0.007650   -0.205693    2.110504
H      -2.503910   -0.359313    2.222553
H      -2.545149   -1.044967    0.586471
H      -1.401707   -2.455440    3.073715
H      -2.164828   -3.261895    1.690925
H      -0.228168   -2.622221    0.229473
H       0.722175   -2.558810    1.726958
