19

C      -0.034484    1.435241    0.023535
N       0.033838   -0.008167    0.011297
C       0.040496   -0.789573   -1.104122
O       0.004104   -0.172303   -2.316851
C       0.081725   -2.114879   -0.745996
C       0.093536   -2.140286    0.685611
N       0.215603   -3.320168    1.453458
C       0.052241   -0.842523    1.141716
C       0.053348   -0.286705    2.524819
H       0.767713    1.858081    0.637329
H       0.078891    1.799323   -0.997456
H      -0.994191    1.793118    0.416188
H       0.101086   -0.846950   -2.994794
H       0.121192   -2.963307   -1.411919
H      -0.398013   -4.051443    1.112189
H      -0.000880   -3.161820    2.430201
H       0.994127    0.213921    2.796164
H      -0.754271    0.439113    2.688717
H      -0.094434   -1.090640    3.252550
