23

C      -0.128899    1.529704   -0.100297
C      -0.046518    0.007415   -0.025034
C      -1.382883   -0.641416   -0.370406
C       1.210292   -0.548187   -0.822916
C       1.918913   -0.571260    0.507198
C       2.985971   -0.160514    1.183703
C       2.592812    0.087693    2.638917
C       1.035363    0.252006    2.574546
C       0.648299   -0.531730    1.304167
H       0.835349    1.995876    0.125827
H      -0.427354    1.849583   -1.105072
H      -0.868273    1.923031    0.606376
H      -1.702800   -0.376649   -1.385207
H      -1.321710   -1.733439   -0.313524
H      -2.168041   -0.313510    0.321072
H       1.008201   -1.545061   -1.230404
H       1.629339    0.078760   -1.615143
H       3.976482    0.046248    0.794369
H       2.879406   -0.749654    3.291463
H       3.083727    0.976734    3.050618
H       0.536718   -0.105507    3.480012
H       0.790888    1.313929    2.465940
H       0.242063   -1.524636    1.537950
