21

C      -0.069708    1.576165    0.124661
C      -0.018845    0.043402    0.069235
C      -1.387812   -0.570518    0.009617
O      -2.239237   -0.318029    1.139903
C      -3.059928   -1.390497    0.588172
C      -3.665260   -0.689143   -0.643134
C      -2.295722   -0.518980   -1.331180
C      -1.892384   -1.995873   -1.579714
C      -1.784193   -2.067820   -0.048841
H       0.935877    1.997675    0.211452
H      -0.531872    1.991255   -0.776884
H      -0.656590    1.908957    0.985086
H       0.555413   -0.286928   -0.805046
H       0.500134   -0.342848    0.954783
H      -3.701547   -1.875131    1.322477
H      -4.359748   -1.299111   -1.228119
H      -4.149569    0.243892   -0.348677
H      -2.180264    0.248614   -2.094532
H      -2.612295   -2.634747   -2.099609
H      -0.908528   -2.099843   -2.045855
H      -1.276757   -2.850879    0.512902
