12

O       0.047979    1.318436    0.066937
C       0.062251   -0.030592    0.059182
N       0.163578   -0.632839   -1.110667
N       0.181624   -1.968611   -1.167081
C       0.097907   -2.669846   -0.052282
O       0.120123   -4.014617   -0.158287
C      -0.011955   -2.088720    1.225039
C      -0.030458   -0.720079    1.282840
H       0.120621    1.591997   -0.859159
H       0.199093   -4.207075   -1.104062
H      -0.077432   -2.714421    2.106626
H      -0.111804   -0.172918    2.213959
