15

O      -0.042461    1.428374   -0.253338
C       1.249222    0.843281    0.011226
C       0.029685    0.009172   -0.065792
C       0.378596   -0.714167   -1.351689
O      -0.013126   -1.684498   -2.352077
C       1.327198   -1.150768   -2.786837
C       1.893665   -1.092330   -1.350582
C       2.083304    0.455052   -1.250105
C       1.005683    0.296598   -2.346843
H       1.714375    1.139989    0.946151
H      -0.495303   -0.418319    0.780483
H       1.719566   -1.561553   -3.714813
H       2.353326   -1.897033   -0.777832
H       3.039334    0.952741   -1.406174
H       0.452316    1.054962   -2.893233
