15

O       0.395546    1.090959   -0.621674
C       0.057996   -0.164806   -0.106551
C       0.154645   -0.405079    1.410400
O       0.963372   -0.061388    2.223276
C      -1.273218   -0.989870    1.458424
O      -2.128622    0.117158    1.835158
C      -2.412268    0.457114    0.451473
C      -1.436238   -0.619126   -0.054415
O      -1.861142   -1.558308   -0.985474
H       0.927725    1.543522    0.044046
H       0.607191   -0.975948   -0.617716
H      -1.522772   -1.937227    1.937900
H      -3.454955    0.237982    0.197462
H      -2.166299    1.497190    0.218021
H      -1.764112   -1.184927   -1.868929
