18

O      -0.148268    1.514213   -0.262822
C       0.018954    0.162417    0.132202
C      -1.352852   -0.483272    0.043857
C      -1.857024   -0.751806   -1.389480
O      -1.744588   -2.183270   -1.203910
C      -1.458319   -2.023742    0.194720
C      -0.229639   -2.830338    0.635942
C      -0.480863   -4.269720    0.610929
N      -0.686014   -5.406537    0.603144
H       0.714977    1.937979   -0.276431
H       0.729019   -0.357673   -0.530215
H       0.409463    0.089302    1.160423
H      -2.044087    0.076261    0.677348
H      -2.891867   -0.447772   -1.583937
H      -1.216384   -0.389539   -2.200517
H      -2.316236   -2.328419    0.809579
H       0.619846   -2.611437   -0.017876
H       0.049854   -2.544392    1.657037
