17

C       0.018620    1.585653    0.028290
C       0.018268    0.085541    0.052752
C       0.662276   -0.789188   -1.024026
O       1.142935   -1.751681   -0.041709
C       0.638520   -0.941672    1.016437
C       1.351271   -0.785807    2.237113
N       1.883064   -0.639570    3.256054
C      -0.883155   -0.783249    0.890404
N      -1.665887   -0.165867    1.917022
H       1.015727    1.974070   -0.200797
H      -0.673810    1.950808   -0.738963
H      -0.297144    2.020347    0.979604
H       0.000412   -1.251161   -1.764365
H       1.506248   -0.302118   -1.525724
H      -1.383484   -1.624367    0.412740
H      -1.868093   -0.836955    2.652272
H      -1.175372    0.605311    2.357352
