14

N       0.041639    1.356372   -0.190842
C      -0.010014   -0.024019   -0.084598
C      -1.225413   -0.713522    0.002887
C      -1.189181   -2.103321    0.046579
C       0.027756   -2.754773   -0.000036
F       0.107047   -4.089732    0.039311
C       1.190653   -1.985150   -0.086493
O       2.385847   -2.606290   -0.128816
N       1.169713   -0.661278   -0.122191
H       0.946068    1.745863    0.030003
H      -0.728225    1.862725    0.218080
H      -2.167157   -0.178574    0.027937
H      -2.098509   -2.689877    0.115728
H       3.045411   -1.901662   -0.190589
