18

O      -0.017493    1.451555    0.008977
C      -0.006866    0.029395    0.004513
C      -1.375437   -0.470281    0.017845
C      -2.498233   -0.907324    0.029134
C      -3.843576   -1.417477    0.043833
C      -5.009879   -1.167790   -0.952322
N      -5.667938   -2.114130    0.064016
C      -4.342517   -2.888338   -0.005972
C      -4.953024   -1.257132    1.120184
H       0.899415    1.744971    0.001175
H       0.509106   -0.363820   -0.886984
H       0.528012   -0.369128    0.882406
H      -5.451982   -0.168686   -0.974852
H      -4.920687   -1.592213   -1.955560
H      -4.203435   -3.440111   -0.939223
H      -4.153566   -3.518252    0.867064
H      -4.809951   -1.765950    2.076877
H      -5.391161   -0.264776    1.252607
