17

O       0.024093   -0.031914   -0.209843
C      -0.023859    1.146422   -0.051217
C      -1.203601    2.178299    0.181134
C      -0.152984    2.973326    0.976104
C       0.514602    4.332180    1.322435
C       1.507728    3.335833    2.041614
C       0.268626    2.497577    2.404346
O       2.120630    2.528866    0.994367
C       0.977119    2.328490    0.173288
H      -1.510586    2.639692   -0.762169
H      -2.081190    1.802224    0.708091
H       0.897739    4.934338    0.495547
H      -0.020637    4.950391    2.045289
H       2.268099    3.655525    2.751314
H      -0.360137    2.933956    3.183016
H       0.434609    1.431786    2.580108
H       1.127929    2.797162   -0.811234
