16

C      -0.021489    1.474613    0.075400
C      -0.001628   -0.014297   -0.027604
C      -0.038578   -0.780217   -1.137177
C       0.001731   -2.182297   -0.751648
C       0.007597   -3.513195   -1.111246
N       0.070797   -4.260463    0.032303
N       0.104878   -3.474769    1.080602
N       0.062962   -2.222595    0.604230
C       0.068280   -0.902628    1.209890
H       0.876062    1.854030    0.579756
H      -0.073689    1.935232   -0.914036
H      -0.881976    1.825098    0.659050
H      -0.089970   -0.420702   -2.155159
H      -0.028156   -3.976609   -2.082814
H       0.979271   -0.737438    1.796469
H      -0.791742   -0.766593    1.875567
