15

C      -0.231856   -1.129975   -0.504987
C      -0.097985    0.018321   -0.174856
C       0.079117    1.412178    0.192112
N       0.193157    1.707037    1.653403
C       1.306505    2.667587    1.424826
C       1.468230    2.068891    0.028941
C       2.643243    1.586087   -0.684142
O       1.902344    2.746874   -1.118417
H      -0.354329   -2.147126   -0.784796
H      -0.671422    2.029790   -0.323897
H      -0.644525    2.112877    2.054885
H       1.010272    3.724405    1.375806
H       2.140766    2.560217    2.125021
H       3.637171    1.792008   -0.290632
H       2.555869    0.712950   -1.327388
