21

C      -0.325025    1.590975   -0.092052
O      -0.255007    0.316642    0.505744
C      -1.256518   -0.564038    0.077724
C      -1.094674   -1.151639   -1.339823
C      -1.875124   -2.473765   -1.235249
O      -2.068426   -2.736177    0.168555
C      -1.281218   -1.844773    0.923102
O       0.033369   -2.289413    1.091825
C       0.137591   -3.447936    1.897269
H       0.450588    2.205963    0.370396
H      -0.144048    1.554074   -1.176484
H      -1.304113    2.067249    0.077736
H      -2.247659   -0.090078    0.172794
H      -1.481477   -0.503371   -2.128394
H      -0.030530   -1.327452   -1.516066
H      -2.867542   -2.408967   -1.694348
H      -1.340451   -3.310155   -1.698630
H      -1.778094   -1.733758    1.896998
H       1.199783   -3.690321    1.972844
H      -0.259758   -3.268340    2.908041
H      -0.400034   -4.296348    1.456867
