22

C       0.105397    1.362993    0.099036
O       0.032699   -0.042411    0.107273
C      -1.282599   -0.526331   -0.050550
C      -1.224086   -2.050144   -0.050065
C      -2.600475   -2.734892   -0.067016
C      -3.403927   -2.439721   -1.340382
C      -2.400464   -4.259852    0.121041
C      -3.657159   -4.992586    0.259353
N      -4.661088   -5.554318    0.371308
H       1.155195    1.637319    0.227544
H      -0.258909    1.786581   -0.850554
H      -0.481098    1.808177    0.918569
H      -1.926778   -0.168072    0.772596
H      -1.717675   -0.143749   -0.988369
H      -0.631324   -2.381191   -0.912603
H      -0.670255   -2.355810    0.845699
H      -3.175587   -2.376175    0.796817
H      -3.630677   -1.374391   -1.431980
H      -2.843792   -2.740865   -2.233808
H      -4.354199   -2.981290   -1.339737
H      -1.849926   -4.672345   -0.733668
H      -1.790925   -4.452976    1.010983
