16

C       0.102882    1.430783    0.065735
C      -0.002495   -0.045649   -0.049657
N      -0.223937   -0.752190   -1.129334
C      -0.185304   -2.035177   -0.653628
C       0.059716   -2.072574    0.662250
C      -0.031521   -3.451215    1.208520
C      -0.136829   -4.199836   -0.181557
O      -0.399995   -3.231208   -1.249770
O       0.169996   -0.778425    1.096052
H       1.111999    1.734821    0.364978
H      -0.126911    1.876199   -0.902411
H      -0.593917    1.819203    0.815450
H       0.841533   -3.801504    1.769019
H      -0.916329   -3.619674    1.836570
H       0.809354   -4.694901   -0.418886
H      -0.942120   -4.935514   -0.205136
