21

C       0.044766    1.570340    0.079525
C       0.043516    0.049706    0.037204
C       0.650750   -0.510599   -1.255180
C       0.736982   -2.057559   -1.216634
C       1.444039   -2.484100    0.093478
C       0.789523   -1.810778    1.299866
O       0.782045   -0.399009    1.171040
C      -0.582521   -2.676263   -1.346415
C      -1.667505   -3.184377   -1.453456
H       1.066729    1.954664    0.000896
H      -0.546195    1.980140   -0.745050
H      -0.380476    1.922981    1.022929
H      -0.993541   -0.318191    0.120592
H       0.062066   -0.185962   -2.118878
H       1.664944   -0.108893   -1.368810
H       1.344591   -2.391774   -2.066795
H       1.418757   -3.572383    0.206547
H       2.493710   -2.174156    0.037088
H      -0.238774   -2.187968    1.424058
H       1.343428   -2.031831    2.216979
H      -2.623061   -3.636355   -1.554374
