17

N       1.090954   -0.096401   -0.314196
C      -0.019463    0.459977   -0.051565
N      -1.168689   -0.309625    0.064686
C      -2.416708    0.210210    0.352501
O      -2.604278    1.398345    0.523288
C      -3.532855   -0.806620    0.447850
C      -4.404320   -0.727917    1.730126
O      -5.608009   -0.546688    0.965067
C      -4.858333   -0.419667   -0.256682
H       1.832289    0.599804   -0.366092
H      -0.218269    1.521350    0.106505
H      -1.049619   -1.303567   -0.070208
H      -3.196485   -1.818865    0.215596
H      -4.435077   -1.633598    2.345387
H      -4.177919    0.143656    2.354928
H      -4.859957    0.608477   -0.635490
H      -5.209434   -1.108806   -1.032114
