13

C      -0.028759    1.449609   -0.009719
N      -0.001439   -0.008132    0.002445
N      -0.036736   -0.626065   -1.194901
C      -0.011545   -1.916884   -1.158175
F      -0.045369   -2.538184   -2.319452
N       0.045697   -2.725696   -0.071519
C       0.079122   -2.118018    1.072780
C       0.058481   -0.660880    1.231447
O       0.088570   -0.055558    2.289492
H       0.867818    1.839225    0.479089
H      -0.075020    1.770000   -1.048326
H      -0.898419    1.806707    0.547736
H       0.125510   -2.708256    1.984798
