20

C      -1.521532   -1.362359    2.848508
C      -0.777030   -1.268854    1.538551
N      -0.834172   -0.004262    0.781056
C       0.465057   -0.494483    1.258158
C       1.296217    0.410009    2.170848
C       2.393266   -0.409526    2.863499
O       1.986724    1.342072    1.324246
C       0.520356    1.165363    3.166489
C      -0.033615    1.848670    3.985888
H      -1.460429   -0.433623    3.413282
H      -2.577604   -1.583911    2.659434
H      -1.115967   -2.174867    3.461723
H      -0.850926   -2.179021    0.941389
H      -0.944300   -0.177849   -0.213830
H       1.127543   -0.937657    0.514492
H       2.993204   -0.927620    2.109981
H       3.045676    0.254197    3.434240
H       1.952492   -1.146067    3.539149
H       1.310007    1.900551    0.922982
H      -0.544256    2.445135    4.701214
