22

C       0.030562    1.585162   -0.119249
C       0.005862    0.058982   -0.010239
C      -1.402626   -0.537001   -0.012134
C      -1.399740   -2.063384    0.004783
C      -2.779854   -2.672280   -0.241867
C      -3.766883   -2.466058    0.911069
N      -4.172053   -1.113667    1.253242
C      -3.404891   -0.120204    1.352669
O      -2.072671    0.049812    1.120945
H       1.058337    1.960038   -0.113442
H      -0.441864    1.922160   -1.048929
H      -0.506290    2.042505    0.714939
H       0.557833   -0.384561   -0.847240
H       0.514223   -0.261309    0.907687
H      -1.936816   -0.199300   -0.914309
H      -0.707955   -2.400848   -0.776122
H      -0.992099   -2.410999    0.963304
H      -3.205409   -2.255476   -1.164447
H      -2.680633   -3.752282   -0.405084
H      -4.682148   -3.027049    0.692054
H      -3.345052   -2.921940    1.820403
H      -3.810755    0.813545    1.746950
