21

C      -0.327487    1.481044    0.002752
C       0.012411    0.007606    0.025555
C      -1.140039   -1.006526    0.255022
C      -0.330423   -1.689130    1.397375
C       0.843980   -0.701709    1.173785
C       1.892734   -1.161507    0.138821
O       2.004296   -2.573229    0.017383
C       1.070397   -0.492005   -1.017295
O       0.663326   -1.374217   -2.029573
H       0.574818    2.103689   -0.026172
H      -0.927360    1.726965   -0.882367
H      -0.905966    1.773937    0.886269
H      -2.065720   -0.534252    0.594378
H      -1.369434   -1.626596   -0.614564
H      -0.791216   -1.576530    2.381177
H      -0.080770   -2.741583    1.254401
H       1.232228   -0.180656    2.050557
H       2.879177   -0.710098    0.292867
H       2.802221   -2.770227   -0.483260
H       1.593574    0.346763   -1.491786
H       0.774455   -2.261611   -1.658430
