13

O       0.032987    1.365211    0.259322
C       0.057650    0.030846    0.041014
C       0.115339   -0.754884   -1.087871
O       0.165282   -0.287556   -2.362476
N       0.116154   -2.068175   -0.764872
C       0.059618   -2.119923    0.563860
N       0.022202   -0.846522    1.088591
C       0.037464   -3.267787    1.376564
C       0.017025   -4.231859    2.099833
H       0.066790    1.802705   -0.598813
H       0.198729   -1.060494   -2.938313
H      -0.023035   -0.598951    2.063283
H      -0.000365   -5.090171    2.724366
