16

C       0.128421    1.541022   -0.075927
C       1.300406    0.586800    0.111431
C      -0.089227    0.066414   -0.043669
O      -0.800670   -0.598660    1.006132
C      -1.284356   -1.619942    0.097748
C      -0.623852   -0.895868   -1.072952
C      -1.012906   -0.730044   -2.469535
O       0.139857   -1.505362   -2.088076
H      -0.201887    2.099896    0.793061
H       0.021013    2.064004   -1.021002
H       1.988285    0.433127   -0.713417
H       1.741182    0.525426    1.100345
H      -0.857316   -2.605812    0.314958
H      -2.378159   -1.677165    0.090803
H      -1.847292   -1.302611   -2.872548
H      -0.795577    0.203163   -2.987176
