16

O       0.150269    0.159156   -0.691142
C       0.380631    1.337349   -0.659458
C       1.635515    1.922281   -0.017467
O       1.692454    3.329541   -0.165095
C       2.386757    3.805115   -1.225884
N       2.384049    5.038798   -1.464037
C       3.157474    5.557353   -2.585623
C       3.896706    4.596696   -3.410503
C       4.494898    3.791330   -4.073771
H      -0.308082    2.100187   -1.086538
H       1.609458    1.708419    1.056167
H       2.520076    1.423751   -0.434445
H       2.926315    3.043078   -1.801706
H       2.469519    6.124928   -3.225838
H       3.858991    6.301512   -2.186019
H       5.031001    3.098213   -4.674334
