27

C      -1.670445   -0.488652    0.021826
C      -0.146641   -0.314836    0.025197
C       0.598499   -0.686394    1.339103
C       0.534690   -2.210101    1.563349
C       2.075297   -0.217112    1.240940
C       2.863150   -0.681231    0.008968
C      -0.092642    0.028470    2.534382
C       0.571122   -0.149456    3.902853
O      -0.170961    1.416846    2.201078
H      -2.154309    0.216711    0.702700
H      -2.066452   -0.296861   -0.980741
H      -1.976933   -1.502006    0.301805
H       0.275107   -0.923838   -0.782218
H       0.082149    0.727396   -0.218296
H       0.888985   -2.749136    0.679677
H       1.156587   -2.523104    2.407773
H      -0.487335   -2.548879    1.762394
H       2.082237    0.877491    1.279277
H       2.610804   -0.561323    2.133866
H       2.877385   -1.771942   -0.086167
H       2.457279   -0.270855   -0.919815
H       3.903625   -0.348638    0.083309
H      -1.111349   -0.384633    2.607174
H      -0.030496    0.351340    4.671499
H       0.642232   -1.202349    4.189057
H       1.571641    0.289444    3.925178
H      -0.535810    1.882900    2.959335
