18

C      -0.087556    1.497078    0.005586
C       0.088578    0.009278    0.006691
C       1.003021   -0.799226   -0.949161
C       0.674930   -1.938319    0.074057
C       0.707780   -0.804381    1.177094
O       1.974218   -0.316507    1.529911
C      -0.816259   -2.015178   -0.099652
N      -1.572329   -3.019450   -0.170638
O      -1.193110   -0.685784   -0.143312
H       0.872081    1.979212    0.209194
H      -0.458231    1.844824   -0.963160
H      -0.801238    1.800650    0.777353
H       0.662516   -0.921700   -1.979121
H       2.043823   -0.484459   -0.899518
H       1.221862   -2.874221    0.149053
H       0.058732   -0.952737    2.049589
H       2.387281   -0.945268    2.130066
H      -2.546247   -2.727824   -0.276075
