22

C       0.053410    1.545616    0.082232
C      -0.034901    0.020286   -0.046604
C      -1.452964   -0.526315   -0.037885
C      -2.261599   -0.427174    1.305290
C      -2.641269   -1.902753    1.136358
C      -1.655625   -2.076101    0.028251
N      -3.077258   -2.230540   -0.230869
C      -3.561064   -1.095375   -1.050027
C      -2.372752   -0.111001   -1.196141
H       1.096211    1.876276    0.108791
H      -0.432990    2.048652   -0.759509
H      -0.429594    1.894795    1.001225
H       0.460129   -0.297436   -0.974842
H       0.529172   -0.444536    0.772745
H      -1.597712   -0.294230    2.164418
H      -3.067711    0.312914    1.362063
H      -2.937225   -2.586137    1.925151
H      -0.947085   -2.862303   -0.207903
H      -3.893817   -1.485087   -2.016217
H      -4.429142   -0.635987   -0.566562
H      -2.688503    0.934957   -1.131399
H      -1.863426   -0.248071   -2.158031
