19

C       0.057744    1.504919    0.023910
C       0.075393   -0.006602   -0.013269
O       0.616797   -0.423072   -1.236489
C       0.519192   -1.835299   -1.426396
C       0.885586   -2.627308   -0.185085
C       2.226753   -2.441052    0.497406
O       3.180077   -1.581245   -0.031826
C       0.983808   -1.862650    1.125893
O       0.887823   -0.463138    1.061455
H       1.071432    1.888820   -0.116120
H      -0.578208    1.888229   -0.776932
H      -0.324079    1.851007    0.986797
H      -0.937280   -0.430361    0.109284
H      -0.508759   -2.090379   -1.727238
H       1.188474   -2.067583   -2.259439
H       0.442212   -3.617469   -0.137101
H       2.677196   -3.312267    0.963706
H       2.828329   -0.685320    0.068237
H       0.575221   -2.278767    2.043075
