23

C      -0.242069    1.573756   -0.027810
C      -0.060215    0.054638    0.040110
C       0.664534   -0.495232   -1.195591
C       0.771477   -2.036524   -1.248631
C       1.608664   -2.612050   -0.104056
O      -0.578471   -2.502245   -1.268588
C      -0.757787   -3.905523   -1.268903
C       1.398411   -2.363235   -2.610097
O       2.547082   -2.667617   -2.795963
H       0.722657    2.088952   -0.096393
H      -0.833936    1.863539   -0.903072
H      -0.757282    1.949851    0.861472
H       0.501805   -0.201662    0.945689
H      -1.033796   -0.437358    0.124620
H       0.128349   -0.165760   -2.095253
H       1.676839   -0.078144   -1.258366
H       1.118140   -2.440746    0.856756
H       1.773550   -3.684837   -0.227701
H       2.591719   -2.136494   -0.091898
H      -1.817864   -4.083648   -1.464931
H      -0.169812   -4.404728   -2.053522
H      -0.498783   -4.360047   -0.303682
H       0.669848   -2.263877   -3.448639
