18

O       0.082720    0.080960    0.666825
C       0.061926    1.155975    0.114690
N      -1.043168    1.973836    0.212481
C      -1.379834    3.352289   -0.133254
C      -0.405260    4.034271   -1.075698
C       0.047483    3.107938   -2.238370
C       1.273101    2.723767   -1.372294
C       1.053503    4.011745   -0.543092
O       1.137681    1.518340   -0.630116
H      -1.721479    1.515484    0.802054
H      -2.375743    3.342833   -0.596612
H      -1.460559    3.952575    0.785706
H      -0.813690    5.010598   -1.347170
H      -0.618727    2.298149   -2.543573
H       0.355747    3.673518   -3.121045
H       2.231133    2.608069   -1.879825
H       1.649468    4.840767   -0.932600
H       1.208718    3.933584    0.536057
