17

C      -0.060578    1.571432    0.006018
C       0.062539    0.075878   -0.009488
C       0.640030   -0.933119   -1.036375
C       1.223498   -1.818686    0.072605
C       0.683354   -0.766533    1.076676
O       0.881770   -0.564872    2.240321
C      -0.849336   -0.817756   -0.869219
C      -1.677444   -1.866575   -0.340133
C      -2.376708   -2.743205    0.094653
H       0.875064    2.036566    0.332177
H      -0.309065    1.960427   -0.986269
H      -0.847480    1.887930    0.698425
H       1.123820   -0.698661   -1.975866
H       0.836518   -2.837299    0.147028
H       2.316582   -1.834948    0.099954
H      -1.328733   -0.230981   -1.650384
H      -2.994758   -3.512856    0.486189
