16

O      -0.746315    0.867606   -0.464376
C       0.075365    1.207080    0.350196
C       1.363313    1.881698    0.007454
N       1.802526    3.039239    0.838882
C       1.776866    3.938959   -0.347161
C       1.650485    2.716066   -1.282837
C       2.963212    1.918630   -1.530049
C       2.645725    1.030251   -0.310409
O       3.151435    0.074847    0.188841
H      -0.075154    1.022121    1.439335
H       1.171705    3.283520    1.594568
H       0.897349    4.592230   -0.393428
H       2.678424    4.552208   -0.452743
H       0.943168    2.759967   -2.106611
H       2.968901    1.336310   -2.456830
H       3.901220    2.477284   -1.466757
