19

C      -0.057426    1.591753    0.099911
C       1.446407    1.229170   -0.019893
C       1.171594    0.074538    1.014340
C      -0.011497    0.029830    0.010342
C      -1.172742   -0.848192   -0.363943
O      -1.585481   -0.410734   -1.670011
C      -0.545844   -0.380016   -2.617320
O       0.477648    0.561495   -2.333607
C       1.051135    0.191416   -1.098683
H      -0.381666    2.004512    1.058758
H      -0.504173    2.111270   -0.745306
H       2.299494    1.907948   -0.024437
H       1.862193   -0.774043    1.007805
H       0.944423    0.398791    2.032007
H      -0.878882   -1.910127   -0.392252
H      -2.049892   -0.744578    0.280560
H      -0.096502   -1.386765   -2.711741
H      -0.997883   -0.076437   -3.562668
H       1.748061   -0.648149   -1.236774
