25

C      -0.065870    1.556278   -0.098196
C       0.000317    0.028157   -0.009184
C       0.691340   -0.515433    1.252198
C      -0.029820   -0.134734    2.559792
C       0.690502   -0.687998    3.798760
C       0.885862   -2.207269    3.708072
C       1.600326   -2.597793    2.405380
C       0.878925   -2.047993    1.165140
O      -0.354038   -2.731191    0.929049
H       0.932473    2.003886   -0.027823
H      -0.502296    1.871346   -1.051323
H      -0.679017    1.989354    0.698253
H      -1.007696   -0.396942   -0.071720
H       0.537796   -0.355877   -0.886246
H       1.704045   -0.084411    1.297147
H      -0.119218    0.953107    2.639284
H      -1.061659   -0.517236    2.530800
H       1.673705   -0.204937    3.886190
H       0.135760   -0.427676    4.707390
H       1.450563   -2.575706    4.571292
H      -0.093154   -2.706359    3.760881
H       2.623091   -2.198546    2.421216
H       1.680492   -3.686318    2.316379
H       1.477555   -2.273250    0.274668
H      -0.906903   -2.635012    1.710713
