18

C       0.075908    1.414672   -0.167400
C       1.416212    0.709234   -0.036217
C       1.566675    0.191263    1.398303
O       0.262761   -0.463584    1.359591
C       0.124515   -0.070432   -0.017072
C       0.077698   -1.027496   -1.181059
C       1.126487   -0.418873   -2.163964
C       2.191667    0.299972   -1.272459
H      -0.291902    2.004538    0.666065
H      -0.166046    1.813006   -1.146899
H       2.370178   -0.546841    1.510792
H       1.628901    0.927912    2.208281
H       0.405449   -2.009956   -0.824320
H      -0.903864   -1.152444   -1.648852
H       1.570489   -1.175979   -2.816124
H       0.638861    0.308579   -2.821399
H       2.679697    1.121085   -1.807920
H       2.978326   -0.406733   -0.982542
