20

C      -0.010824    1.583591    0.010586
C       0.001943    0.051808    0.002225
C       0.669160   -0.500647   -1.267875
C       0.684524   -2.041613   -1.298970
C       1.285083   -2.627441   -0.028098
O       2.143687   -3.478664   -0.043344
C       0.716420   -2.055337    1.263529
C       0.700493   -0.514129    1.249334
H       1.009683    1.984359    0.000021
H      -0.532781    1.981908   -0.865719
H      -0.510741    1.972435    0.903832
H      -1.041679   -0.298951    0.013337
H       0.159582   -0.120512   -2.160444
H       1.701679   -0.128193   -1.318897
H      -0.349734   -2.407848   -1.374194
H       1.236916   -2.430301   -2.157809
H      -0.315694   -2.422493    1.360546
H       1.289965   -2.453129    2.104141
H       1.734012   -0.142105    1.278628
H       0.213340   -0.143645    2.158330
