21

C       0.075735    1.525316   -0.190018
C      -0.037294    0.046279    0.192696
C      -1.453776   -0.500998    0.053263
C      -2.066452   -0.675785   -1.391121
C      -2.239277   -2.167360   -1.087022
O      -0.923853   -2.684540   -0.792253
C      -1.659602   -2.017251    0.255499
C      -1.858707   -2.818089    1.509525
O      -2.134148   -4.170227    1.213558
H       1.104648    1.882978   -0.085915
H      -0.230101    1.692999   -1.228393
H      -0.560273    2.150887    0.446429
H       0.630873   -0.556921   -0.431792
H       0.299295   -0.088228    1.229287
H      -2.148583    0.063337    0.686147
H      -3.010689   -0.142663   -1.521673
H      -1.402800   -0.455514   -2.231382
H      -2.967250   -2.874581   -1.466116
H      -0.966752   -2.715043    2.152048
H      -2.710738   -2.422091    2.074061
H      -1.524889   -4.407290    0.501949
