21

C       0.711037    1.552308   -0.856207
C       0.368077    0.208027   -0.414145
C       0.088443   -0.907194   -0.052504
C      -0.267225   -2.235443    0.402304
C      -0.185141   -2.555368    1.936040
C      -1.517869   -3.300374    1.800524
C      -1.734923   -4.753174    2.113860
C      -2.494643   -3.681670    2.867467
C      -1.782889   -2.638551    0.443574
H       1.467838    1.532216   -1.648527
H      -0.165340    2.078790   -1.250974
H       1.112330    2.153547   -0.032477
H       0.295183   -2.989751   -0.157739
H       0.685953   -3.125099    2.269842
H      -0.268818   -1.644600    2.536008
H      -2.281967   -5.357398    1.396552
H      -0.950373   -5.288081    2.640385
H      -2.222901   -3.494934    3.901878
H      -3.553611   -3.564212    2.658878
H      -2.425598   -1.756882    0.521334
H      -2.141745   -3.272319   -0.371523
