19

C       0.155332    1.873404   -0.247602
C       0.060307    0.363620   -0.026103
C       0.808094   -0.408301   -1.119712
N       0.587103   -1.838598   -1.000672
C       1.201708   -2.710334   -1.833455
O       1.952167   -2.390295   -2.735059
N       0.549300    0.041980    1.320526
C       0.104247   -1.003086    2.053917
O      -0.671226   -1.857020    1.657606
H       1.198679    2.210089   -0.229627
H      -0.262857    2.144214   -1.219952
H      -0.396377    2.414960    0.525596
H      -0.991373    0.055978   -0.047022
H       0.466458   -0.057918   -2.101970
H       1.882867   -0.189695   -1.069039
H      -0.005119   -2.170184   -0.247727
H       0.942372   -3.762604   -1.602977
H       1.207744    0.673805    1.749905
H       0.520073   -1.008302    3.078560
