19

C       0.788702    1.335037   -0.314673
O       0.909655   -0.055161   -0.510568
C      -0.339604   -0.663206   -0.775089
C      -0.171056   -2.095348   -0.975367
C      -0.055034   -3.280505   -1.155529
C       0.071899   -4.700430   -1.333376
O       0.152873   -5.204805   -2.680361
C       1.309344   -5.327218   -1.856726
C       2.529015   -4.537947   -2.248497
H       0.380767    1.840629   -1.204495
H       0.138979    1.573233    0.542673
H       1.790960    1.721008   -0.116881
H      -1.040028   -0.485055    0.059936
H      -0.803782   -0.217064   -1.672405
H      -0.558342   -5.303946   -0.680088
H       1.500095   -6.349337   -1.521898
H       2.265821   -3.505836   -2.487783
H       3.256372   -4.533828   -1.429863
H       3.006863   -4.992252   -3.122554
