21

C      -1.093703   -0.247873    0.338137
C      -1.238578   -1.354080   -0.710479
C      -1.141223   -2.740530   -0.055237
O      -2.544567   -1.185219   -1.272588
C      -0.143672   -1.231478   -1.777341
C      -0.374764   -1.528077   -3.220615
C      -0.045183   -0.098439   -2.798981
C      -1.079958    0.955900   -2.948443
O      -0.813274    2.110763   -3.189139
H      -0.096319   -0.269796    0.786940
H      -1.243371    0.734918   -0.115744
H      -1.837011   -0.377507    1.129566
H      -1.946430   -2.865659    0.674176
H      -1.224953   -3.533175   -0.808327
H      -0.184948   -2.873040    0.459747
H      -2.781846   -2.000951   -1.725814
H       0.831488   -1.522635   -1.394695
H       0.372192   -2.072340   -3.786840
H      -1.397141   -1.696475   -3.544345
H       0.955670    0.265777   -3.007063
H      -2.126357    0.612666   -2.833660
