17

O       0.133555    1.393579    0.019632
C       0.078611   -0.001622   -0.015667
C      -0.448274   -0.718918    1.232130
O      -0.918379    0.131219    2.250852
C      -1.243605   -0.702151   -0.022425
C      -2.689018   -0.263066   -0.290388
C      -2.517604   -0.693818   -1.769230
C      -1.938359   -1.796704   -0.846888
O      -3.129268   -1.648607    0.025034
H      -0.332792    1.652264    0.827641
H       0.918556   -0.425492   -0.559557
H       0.011592   -1.645835    1.571352
H      -0.188519    0.290321    2.860506
H      -3.253878    0.560300    0.142896
H      -3.444127   -0.964533   -2.276704
H      -1.824515   -0.122934   -2.390890
H      -1.604278   -2.806990   -1.083348
