19

C      -0.062205    1.485299    0.001958
N      -0.010677    0.028531    0.004929
C      -1.348867   -0.557096   -0.074960
C      -1.264717   -2.077502   -0.116349
O      -0.577788   -2.572307    1.023173
C       0.729281   -2.058073    1.084596
C       0.707212   -0.513019    1.161074
C       2.089094   -0.019772    1.208423
N       3.186920    0.334947    1.269639
H       0.950312    1.896221    0.005201
H      -0.565363    1.822957   -0.908539
H      -0.608833    1.898195    0.869988
H      -1.977913   -0.253090    0.784216
H      -1.831903   -0.187673   -0.985913
H      -2.263549   -2.520624   -0.096661
H      -0.751441   -2.397440   -1.036529
H       1.199582   -2.468081    1.981131
H       1.316231   -2.355485    0.202369
H       0.220000   -0.228020    2.115000
