19

N      -0.128911    1.333891    0.204039
C       0.061470   -0.035375    0.039112
O       1.163056   -0.543553   -0.041574
N      -1.115893   -0.757620   -0.000325
C      -1.091964   -2.186035    0.017026
C      -0.528065   -3.152254    1.110714
C      -1.130364   -4.053721   -0.003742
C      -2.351725   -3.085462   -0.041264
C      -0.447874   -3.120642   -1.045485
H       0.711863    1.858603    0.013844
H      -0.958728    1.738115   -0.204575
H      -1.940547   -0.320753    0.382771
H       0.556329   -3.161133    1.227089
H      -1.046615   -3.153603    2.074159
H      -1.163874   -5.140937   -0.018475
H      -3.000447   -3.080713    0.840606
H      -2.930289   -3.058154   -0.969318
H      -0.892854   -3.094481   -2.044409
H       0.641652   -3.123203   -1.080095
