18

C       0.048421    1.538893   -0.050139
C      -0.017422    0.041901    0.000099
C      -0.096733   -0.780108   -1.065245
C      -0.048788   -2.221997   -0.697365
C       1.247321   -2.668174   -0.049614
C       0.076414   -2.228380    0.810502
C       0.031189   -0.792206    1.227872
N       0.006371   -0.503217    2.475349
O      -0.041188    0.880354    2.716484
H       0.965735    1.913807    0.414102
H       0.016658    1.886103   -1.087102
H      -0.780080    1.992254    0.500603
H      -0.138936   -0.438981   -2.094247
H      -0.649321   -2.947734   -1.233632
H       1.469882   -3.730276   -0.044922
H       2.110790   -2.017654   -0.135897
H      -0.406462   -2.966934    1.436359
H      -0.062502    0.912343    3.678303
