15

C       0.274718    1.071288    0.535800
N      -0.116750    0.129937   -0.521681
C      -1.327663   -0.556496   -0.304591
C      -2.631353   -0.313620   -0.683829
C      -3.426453   -1.389613   -0.193707
C      -2.591154   -2.248758    0.479163
N      -1.318831   -1.735040    0.403996
H       1.230329    1.532685    0.269197
H      -0.465544    1.865753    0.716881
H       0.415617    0.526127    1.473597
H      -0.150334    0.606856   -1.414064
H      -2.972950    0.544777   -1.242568
H      -4.492173   -1.510992   -0.313835
H      -2.788950   -3.171106    1.000634
H      -0.477445   -2.177956    0.730280
