15

N       0.031643    1.248364    0.322331
C       0.002047    0.006468   -0.211528
O       0.904886   -0.478495   -0.863544
C      -1.324549   -0.779305    0.000880
C      -0.983700   -2.289000    0.105763
C      -2.159756   -3.141324   -0.028437
N      -3.093466   -3.812069   -0.142818
C      -2.134043   -0.304773    1.115435
C      -2.789135    0.088902    2.043678
H       0.869013    1.795992    0.210350
H      -0.697976    1.567941    0.937177
H      -1.889195   -0.631784   -0.929805
H      -0.260990   -2.516698   -0.682333
H      -0.498421   -2.494210    1.065070
H      -3.385054    0.419887    2.858845
