18

O       0.007732    1.460117    0.624559
C      -0.043217    0.145852    0.047642
C       0.858249   -0.822530    0.768669
C       0.163423   -1.669118    1.531668
C      -1.326772   -1.470937    1.413032
C      -1.444261   -0.522925    0.188078
N      -2.483802    0.478976    0.253569
C      -3.783341    0.204661   -0.011282
O      -4.219560   -0.899758   -0.269201
H       0.144648    1.350089    1.572683
H       0.216812    0.300876   -1.003335
H       1.938289   -0.761550    0.702927
H       0.601561   -2.423724    2.176649
H      -1.876546   -2.403114    1.254532
H      -1.745806   -1.014643    2.319282
H      -1.622262   -1.145123   -0.694308
H      -2.177950    1.425172    0.431329
H      -4.418686    1.111713    0.035593
