20

C       0.186900    1.536577    0.036149
C      -0.067071    0.027979   -0.019611
C       0.636714   -0.660974   -1.228403
C       1.870131   -1.290663   -0.597392
C       1.718240   -1.239528    0.747268
N       0.538665   -0.666163    1.139498
C       3.012445   -1.912552   -1.257942
C       3.019112   -1.897143   -2.781073
O       3.933507   -2.419961   -0.633091
H       1.261506    1.746016    0.018993
H      -0.274644    2.033527   -0.823223
H      -0.237138    1.978471    0.944737
H      -1.145361   -0.158629   -0.029573
H      -0.018031   -1.419547   -1.677017
H       0.862295    0.066223   -2.016090
H       2.410973   -1.632430    1.479981
H       0.477916   -0.228706    2.047261
H       2.990801   -0.868877   -3.160533
H       3.920491   -2.392903   -3.142928
H       2.134632   -2.407432   -3.180386
