16

C      -0.923836    0.344958    0.871902
C      -0.274351    0.737469   -0.060359
C       0.566137    1.205523   -1.164205
N       1.847985    1.813449   -0.748586
C       1.768681    3.064582   -0.115474
C       1.867667    3.475080    1.201187
C       1.741057    4.879759    1.143776
N       1.567804    5.320016   -0.098371
N       1.596030    4.197326   -0.848015
H      -1.510716    0.007164    1.690132
H       0.796113    0.369694   -1.834455
H       0.021116    1.942939   -1.762266
H       2.356613    1.162908   -0.162060
H       1.989086    2.844938    2.066943
H       1.759883    5.586561    1.960814
H       1.553364    4.265753   -1.850909
