19

C       0.022708    1.492060    0.136720
C       1.454326    2.035072   -0.036697
C       2.088065    1.549877   -1.342148
C       3.582255    1.167042   -1.293961
O       3.724380    0.158268   -0.287281
C       3.295272   -0.244940   -1.590783
C       1.785054    0.046079   -1.720063
C       0.792511   -0.667088   -0.861708
C      -0.027421   -0.006714   -0.043618
H      -0.352231    1.759112    1.131139
H      -0.659119    1.978995   -0.576582
H       1.457574    3.129484    0.014639
H       2.056974    1.661747    0.796597
H       1.858486    2.214666   -2.179408
H       4.454641    1.773184   -1.511018
H       3.888107   -1.000657   -2.094199
H       1.502314   -0.023084   -2.778310
H       0.733511   -1.750075   -0.947385
H      -0.768147   -0.554577    0.533547
