23

C      -0.034268    1.554980   -0.134691
C       0.046744    0.022785   -0.082719
C       0.850089   -0.515613   -1.275326
C       0.665833   -0.491466    1.231818
C      -0.092850   -0.128873    2.531355
C      -1.511281   -0.745673    2.592277
O      -2.189240   -0.429572    3.787804
C       0.661315   -0.564200    3.706889
C       1.243033   -0.960706    4.683158
H       0.960767    2.001808   -0.019571
H      -0.438275    1.889722   -1.095583
H      -0.676928    1.966070    0.649749
H      -0.973278   -0.374850   -0.169035
H       1.883791   -0.150390   -1.248487
H       0.884234   -1.610107   -1.273565
H       0.409430   -0.194337   -2.224640
H       0.758180   -1.583777    1.184451
H       1.689046   -0.104467    1.314055
H      -0.210882    0.960115    2.594953
H      -2.122623   -0.341242    1.781064
H      -1.429582   -1.834596    2.442204
H      -1.621415   -0.710958    4.515788
H       1.780002   -1.290640    5.538068
