15

C      -0.086236    1.497647    0.009581
N      -0.006444    0.038720    0.005362
C       0.090243   -0.637007    1.221671
N       0.110838   -0.019159    2.332846
C      -0.022561   -0.716508   -1.171145
C      -0.129016    0.067388   -2.464247
O       0.044787   -1.928998   -1.156807
H       0.755822    1.942786   -0.528128
H      -1.019830    1.845368   -0.441878
H      -0.053203    1.817380    1.050083
H       0.141922   -1.714583    1.070382
H       0.184893   -0.685044    3.099054
H       0.710864    0.758815   -2.584022
H      -0.129729   -0.647036   -3.286287
H      -1.047459    0.661643   -2.498106
