20

C       0.082924    1.565596   -0.114105
C       0.032794    0.043812    0.047736
O       0.773631   -0.380494    1.180738
C      -1.406703   -0.504805    0.095503
C      -1.465883   -2.050438    0.179057
C      -2.684596   -2.355263    1.062752
C      -2.915687   -1.074110    1.865704
O      -3.681015   -0.903427    2.785843
N      -2.091433   -0.107611    1.322963
H       1.122045    1.900577   -0.158214
H      -0.426082    1.886367   -1.029399
H      -0.390583    2.071601    0.735603
H       0.528441   -0.418954   -0.815009
H       0.231012   -0.181690    1.954948
H      -1.947853   -0.140690   -0.791054
H      -1.523999   -2.501985   -0.813200
H      -0.548280   -2.398961    0.659667
H      -3.591999   -2.536878    0.475291
H      -2.557641   -3.209922    1.729819
H      -2.294793    0.857454    1.537639
