19

C       0.002635    1.506953   -0.072622
C       0.014231   -0.010456   -0.014734
O       0.677380   -0.500248   -1.167425
C       0.745725   -1.902827   -1.218548
C       1.513623   -2.279202   -2.498475
C       2.960109   -1.750900   -2.487166
C       1.479332   -3.732354   -2.681935
N       1.456530   -4.880466   -2.812612
H       1.023382    1.898772   -0.096412
H      -0.519374    1.853072   -0.969051
H      -0.505880    1.915912    0.805279
H       0.530298   -0.362267    0.893771
H      -1.013921   -0.406512    0.023801
H       1.268706   -2.309229   -0.336858
H      -0.261570   -2.347896   -1.239264
H       0.975955   -1.826944   -3.340900
H       2.941991   -0.670889   -2.333289
H       3.532496   -2.211890   -1.676918
H       3.463951   -1.971069   -3.431044
