15

C       0.007927    1.547472   -0.055385
C      -0.018175    0.014370    0.076825
C       0.716876   -0.452899    1.248189
C       1.339786   -0.802653    2.213152
N      -1.403599   -0.477511    0.112649
C      -2.188648   -0.887673    1.124612
N      -3.381111   -1.176223    0.649236
N      -3.311604   -0.929685   -0.685355
N      -2.136778   -0.510775   -1.020661
H       1.040795    1.888509   -0.155505
H      -0.557951    1.845368   -0.940377
H      -0.432183    2.014943    0.828668
H       0.420612   -0.426476   -0.824739
H       1.895804   -1.123989    3.060025
H      -1.861505   -0.968981    2.146896
