16

C      -0.149739    1.522211    0.017324
C      -0.023612    0.032712    0.019992
C       0.139443   -0.801331   -1.003864
C       0.199429   -2.222389   -0.525933
O      -0.064479   -2.146834    0.875858
C      -0.060288   -0.802453    1.294154
C       1.146733   -0.486235    2.182391
O       2.098748   -1.203674    2.319306
H       0.666254    2.001815    0.571216
H      -0.138051    1.915720   -1.002021
H      -1.084133    1.841450    0.495491
H       0.219251   -0.521147   -2.047082
H      -0.557129   -2.866074   -0.996991
H       1.182678   -2.684562   -0.703532
H      -0.964457   -0.590997    1.893126
H       1.074831    0.499844    2.701565
