25

C      -0.105853    1.623291   -0.008530
C       0.071455    0.110911    0.006356
C       1.066326   -0.613983   -0.951881
C       2.392090    0.157673   -1.038521
C       3.079357    0.265240    0.351055
C       2.096075    0.148443    1.548695
C       0.824762   -0.621513    1.159413
C       1.172881   -1.741119    0.125770
C       0.160369   -2.876397    0.005874
H       0.835394    2.168985    0.101071
H      -0.565324    1.950156   -0.948650
H      -0.765992    1.943896    0.805848
H      -0.916544   -0.344941   -0.108314
H       0.697929   -0.890410   -1.945338
H       3.070272   -0.346209   -1.737086
H       2.205798    1.151239   -1.462299
H       3.812861   -0.542557    0.432097
H       3.657131    1.192285    0.420468
H       2.599353   -0.360892    2.378822
H       1.818079    1.139149    1.926430
H       0.241716   -0.904631    2.042016
H       2.171171   -2.178454    0.238430
H      -0.866305   -2.515208   -0.110311
H       0.385558   -3.508628   -0.860489
H       0.184553   -3.514888    0.896241
