23

C      -0.010312    1.547218    0.054860
C       0.002379    0.030728   -0.031589
C       0.237750   -0.659496   -1.413019
C      -0.693181   -1.805459   -0.918241
C       0.076344   -2.800370   -0.034286
C       1.230641   -2.092156    0.713046
C       0.907761   -0.614867    1.039024
C      -1.368654   -0.719580   -0.033507
O      -2.034747   -1.041853    1.160456
H       0.988293    1.967473   -0.113741
H      -0.686418    1.979823   -0.690726
H      -0.347086    1.880902    1.043484
H      -0.222472   -0.087741   -2.223813
H       1.261776   -0.911334   -1.698632
H      -1.320709   -2.317709   -1.651605
H      -0.626215   -3.269603    0.668350
H       0.477612   -3.619022   -0.641139
H       1.504324   -2.639999    1.620703
H       2.118715   -2.115918    0.073966
H       1.841580   -0.048073    1.129762
H       0.410867   -0.522576    2.014881
H      -2.096268   -0.152283   -0.622560
H      -1.451321   -1.572975    1.711004
