23

C      -0.377891    1.446587   -0.002310
C       0.004315   -0.030024    0.001230
C       1.237647   -0.381356   -0.891371
C       2.071493   -0.561725    0.383478
C       3.315984   -1.376183    0.562805
C       3.375903    0.130632    0.675072
C       0.803209   -0.538590    1.253218
C       0.799702    0.283578    2.526352
O      -0.507363    0.211888    3.085550
H       0.498443    2.091669    0.127976
H      -0.843509    1.719463   -0.955552
H      -1.084935    1.668132    0.802821
H      -0.883680   -0.631480   -0.209299
H       1.111800   -1.310218   -1.456766
H       1.564581    0.403059   -1.581655
H       3.423236   -1.957987    1.473567
H       3.750673   -1.843202   -0.315694
H       3.844821    0.687202   -0.130701
H       3.534919    0.560725    1.658929
H       0.487320   -1.556124    1.510733
H       1.551217   -0.119983    3.226013
H       1.082914    1.324754    2.312671
H      -0.525066    0.756508    3.877948
