21

C      -0.035327    1.507941   -0.260894
C       0.025963   -0.011811   -0.098147
C      -1.320765   -0.608704   -0.501362
C       1.386408   -0.674133   -0.522560
O       2.042190    0.056633    0.587933
C       0.805809   -0.521202    1.166305
C       1.208426   -1.856382    0.473295
C       0.350110   -3.110244    0.285647
O       1.181796   -4.214956    0.621980
H       0.910200    1.975879    0.009341
H      -0.275836    1.770876   -1.297642
H      -0.828876    1.927502    0.368390
H      -1.535655   -0.367541   -1.548739
H      -1.404366   -1.687268   -0.390321
H      -2.118568   -0.155682    0.098098
H       1.889252   -0.659298   -1.492341
H       0.613050   -0.324352    2.223518
H       2.183574   -2.181735    0.839748
H      -0.536819   -3.082396    0.936843
H      -0.004329   -3.197029   -0.752164
H       0.669364   -5.020724    0.504948
