23

C      -0.023092    1.488627    0.014916
C       0.060308   -0.023894    0.034703
C       1.410027   -0.641204   -0.209382
C       0.781995   -0.657509    1.192334
C       0.706048   -2.197902    1.157754
C      -0.636536   -2.946322    1.035850
C      -0.471550   -3.795681   -0.247415
C       0.368682   -2.920154   -1.208073
C       1.346981   -2.181250   -0.272939
H       0.886454    1.938477    0.427654
H      -0.146113    1.866721   -1.005932
H      -0.870006    1.847938    0.609771
H      -0.824422   -0.514363   -0.367410
H       2.235809   -0.039809   -0.573317
H       1.054904   -0.070460    2.062353
H       1.359267   -2.649963    1.907639
H      -0.866799   -3.559926    1.911733
H      -1.465181   -2.239878    0.915580
H       0.084891   -4.710974   -0.008818
H      -1.427584   -4.108630   -0.679342
H       0.874216   -3.514607   -1.974731
H      -0.278868   -2.208977   -1.732563
H       2.345284   -2.624368   -0.293383
