13

C       0.064654    1.483478    0.004338
N      -0.018492    0.019690    0.053816
C      -1.369376   -0.528233    0.015705
C      -1.273798   -2.006724   -0.000693
N      -1.174601   -3.155185   -0.036096
C      -2.107661   -0.108315    1.233931
N      -2.676355    0.233628    2.177328
C      -2.158760   -0.096852   -1.180784
N      -2.683858    0.286439   -2.135211
H       1.121650    1.754632    0.022260
H      -0.402668    1.924617   -0.887174
H      -0.408119    1.903606    0.895954
H       0.521967   -0.405590   -0.692523
