14

O       0.012770   -0.084079    0.029292
C      -0.011610    1.143576    0.015932
C      -1.244210    1.924620    0.022674
C      -1.244071    3.284874    0.001344
N      -2.379003    4.095378   -0.078202
H      -3.234948    3.562092   -0.009224
H      -2.389060    4.853984    0.593876
N      -0.055420    3.976276    0.001892
C       1.150430    3.311205   -0.000451
C       1.209307    1.965301    0.014815
H      -2.183552    1.385176    0.060727
H      -0.077782    4.965980   -0.181056
H       2.024764    3.951150   -0.010115
H       2.164678    1.456058    0.027051
