25

C       0.922686   -0.283795   -1.065550
C      -0.003268    0.098124    0.097844
C      -0.182850    1.621588    0.165699
C      -1.379439   -0.589154    0.005941
C      -1.391710   -2.128650    0.032881
C      -0.799506   -2.705021    1.324548
C      -2.845142   -2.627041   -0.178990
C      -2.956843   -4.072190   -0.336495
C      -3.026119   -5.264820   -0.474167
H       1.879417    0.243645   -0.990948
H       1.139694   -1.355805   -1.087594
H       0.471025   -0.015232   -2.028479
H       0.478387   -0.218173    1.032601
H      -0.659135    2.001250   -0.746450
H      -0.811481    1.912803    1.013928
H       0.781172    2.129995    0.271729
H      -2.006926   -0.224409    0.832206
H      -1.870475   -0.249112   -0.917711
H      -0.804617   -2.503512   -0.814225
H      -0.886190   -3.794936    1.337688
H       0.258824   -2.452019    1.432877
H      -1.327689   -2.314279    2.203268
H      -3.463689   -2.303167    0.669746
H      -3.267601   -2.137164   -1.065767
H      -3.099442   -6.316946   -0.595441
