16

C       0.198142    1.434035    0.122646
C      -0.021330   -0.040501    0.087047
O       1.037185   -0.888252   -0.330082
C       0.531224   -1.122709    0.988605
C       1.389660   -0.906381    2.170588
O       2.443882   -0.319625    2.156167
C      -0.777379   -1.883900    0.876868
N      -1.833139   -0.962946    1.375618
C      -1.324859   -0.823103   -0.013741
H       1.179716    1.652730    0.549738
H       0.160126    1.851581   -0.889533
H      -0.577289    1.915224    0.724961
H       0.954458   -1.314619    3.108456
H      -0.927753   -2.954053    0.823441
H      -2.722324   -1.463670    1.326758
H      -1.978063   -0.927151   -0.870640
