25

C      -0.292411    1.655935    0.312650
C      -0.061495    0.144683    0.232857
C       0.562521   -0.438979    1.508779
C       0.730193   -1.953042    1.435545
C       1.877268   -2.631361    0.609260
C       2.864596   -2.211878    1.736798
C       1.598012   -2.748511    2.466101
C       1.633289   -3.934839    1.443270
C       0.447545   -4.859116    1.206197
H       0.648785    2.192243    0.478023
H      -0.737766    2.042925   -0.609385
H      -0.964995    1.910403    1.139637
H      -1.014980   -0.361721    0.031593
H       0.587220   -0.082929   -0.622969
H       1.511431    0.070811    1.706395
H      -0.088209   -0.203584    2.363296
H      -0.255639   -2.392438    1.258111
H       2.044845   -2.567462   -0.468402
H       3.770549   -2.817001    1.834368
H       3.096135   -1.152037    1.839248
H       1.439703   -2.816708    3.545139
H       2.542322   -4.540481    1.540858
H      -0.508038   -4.340308    1.101135
H       0.603706   -5.448375    0.295486
H       0.347937   -5.566765    2.037011
