23

C       0.034890    1.573821    0.031365
C       0.011109    0.043687   -0.016784
C       0.670933   -0.505016   -1.291014
C       0.456922   -2.020166   -1.415103
C       0.841947   -2.786481   -0.162529
O       0.281717   -4.074473   -0.080667
C       2.187060   -2.590705    0.486063
C       0.923483   -2.064815    1.153339
C       0.668741   -0.560741    1.239844
H       1.064711    1.950551    0.013199
H      -0.493161    2.008346   -0.824080
H      -0.438348    1.951108    0.944433
H      -1.039468   -0.282058   -0.033021
H       0.254680   -0.008054   -2.174875
H       1.743388   -0.264849   -1.282858
H      -0.607330   -2.217780   -1.595533
H       1.001835   -2.416934   -2.283018
H       0.704074   -4.619424   -0.754388
H       2.653536   -3.468683    0.919020
H       2.877665   -1.865859    0.064700
H       0.585188   -2.652584    2.000222
H       1.617143   -0.038323    1.427297
H       0.034995   -0.349647    2.108219
