17

C      -0.263615    1.439180    0.224762
N       0.017680    0.012150    0.147769
C       1.354201   -0.429526   -0.190988
C       0.806676   -0.651270    1.193535
C       1.444822    0.144325    2.342052
C       0.483342    0.529959    3.376336
N      -0.274768    0.850886    4.186727
C       0.336487   -1.957716    1.588479
C      -0.023568   -3.046327    1.947663
H       0.597022    2.063513    0.510914
H      -0.601427    1.770862   -0.761415
H      -1.071885    1.610148    0.940502
H       1.427715   -1.263839   -0.882446
H       2.141290    0.320055   -0.285394
H       2.225315   -0.470483    2.802213
H       1.932400    1.047617    1.966432
H      -0.362546   -4.003791    2.258415
