14

C       0.015213   -1.192262    0.045078
C       0.022761    0.008398    0.012962
C      -0.004454    1.466631    0.001094
C      -0.595232    2.083757    1.310412
O       0.413480    3.018021    1.742214
C       1.454813    2.868183    0.877285
N       1.350952    2.055238   -0.098507
C       2.597476    3.671724    1.154162
C       3.555752    4.354349    1.394819
H       0.020922   -2.254179    0.062751
H      -0.576284    1.797398   -0.875371
H      -1.525470    2.631121    1.145567
H      -0.739721    1.337349    2.094662
H       4.408483    4.954286    1.599841
