13

O       0.029456    0.053722    0.003288
C      -0.037481    1.238302    0.010562
C      -1.302473    2.126258    0.033056
N      -0.708295    3.435829    0.031790
C      -1.007663    4.792218    0.042981
C       0.215819    5.408021    0.029274
N       1.265255    4.489243    0.009368
C       0.642995    3.355769    0.012274
O       1.079764    2.059663   -0.000800
H      -1.915597    1.917935   -0.849514
H      -1.890683    1.908332    0.930143
H      -2.016635    5.165778    0.059135
H       0.417791    6.467518    0.032171
