22

C      -0.148954    1.585553   -0.590202
C      -0.010814    0.183543    0.005923
C      -1.319263   -0.614351   -0.019352
C      -1.186909   -2.049673    0.559788
O      -2.210075   -2.120292    1.574214
C      -2.767121   -0.875065    1.631543
C      -3.819686   -0.706567    2.679831
C      -3.285102   -0.940645    4.101923
N      -2.359892    0.010688    0.816959
H       0.797396    2.132303   -0.535968
H      -0.447119    1.538160   -1.643692
H      -0.911004    2.156304   -0.053850
H       0.752954   -0.384926   -0.541594
H       0.333390    0.249140    1.046245
H      -1.685677   -0.644721   -1.054559
H      -1.370452   -2.841920   -0.170414
H      -0.215560   -2.225042    1.036389
H      -4.229294    0.299986    2.574232
H      -4.626903   -1.419762    2.472583
H      -4.088414   -0.825843    4.834877
H      -2.869263   -1.946356    4.201033
H      -2.497790   -0.220996    4.346275
