17

O       0.274436    1.518823    0.119606
C      -0.011278    0.161878   -0.036776
C      -1.514094   -0.122053   -0.250745
C      -1.575640   -1.350944   -1.181536
C      -0.401965   -1.157243   -2.153969
C       0.654066   -0.406458   -1.350657
O       1.801197   -0.220998   -1.645092
C       0.544572   -0.618482    1.140679
O       1.252257   -0.092541    1.964195
H       0.943572    1.571444    0.820779
H      -2.060124   -0.265929    0.685367
H      -1.933246    0.761676   -0.742213
H      -1.439805   -2.273647   -0.605921
H      -2.539716   -1.433019   -1.687855
H       0.007354   -2.073734   -2.585185
H      -0.687524   -0.507751   -2.992005
H       0.273829   -1.691309    1.204665
