20

C      -0.094436    1.512268   -0.086585
C      -0.018959    0.016894    0.173145
O      -1.302953   -0.537595   -0.054028
C      -1.380160   -1.954852    0.025098
C      -1.396844   -2.455224    1.471673
C      -2.659886   -2.350617   -0.724953
C      -2.598623   -2.028400   -2.202305
O      -2.967391   -2.771786   -3.076341
H       0.881362    1.977436    0.081862
H      -0.400682    1.708978   -1.117916
H      -0.822144    1.980958    0.581870
H       0.718292   -0.456519   -0.496254
H       0.313494   -0.171619    1.205359
H      -0.508967   -2.391680   -0.493323
H      -1.465124   -3.547121    1.499274
H      -0.486807   -2.165702    2.004237
H      -2.256451   -2.038983    2.006400
H      -2.883555   -3.413925   -0.605767
H      -3.488138   -1.773858   -0.289379
H      -2.179318   -1.025958   -2.434162
