22

N      -0.013698    1.318381   -0.252722
C       0.059290    0.029766    0.198171
O       1.086439   -0.441050    0.646414
C      -1.246844   -0.758191    0.103065
C      -1.013112   -2.266036   -0.012538
C      -2.308177   -3.080565    0.056860
C      -2.070223   -4.588143   -0.069030
C      -3.354145   -5.402950    0.010191
O      -3.014135   -6.774840   -0.126089
H       0.787363    1.913547   -0.118262
H      -0.879560    1.734756   -0.546151
H      -1.821286   -0.540138    1.014793
H      -1.852161   -0.388923   -0.734219
H      -0.492541   -2.479720   -0.954408
H      -0.327018   -2.569373    0.784402
H      -2.820178   -2.867434    1.006158
H      -2.994211   -2.750748   -0.736523
H      -1.574781   -4.813630   -1.021389
H      -1.391780   -4.929605    0.722171
H      -3.857483   -5.211015    0.972508
H      -4.047149   -5.083592   -0.786275
H      -3.822414   -7.292275   -0.068538
