17

C       0.034572    1.535519   -0.012456
C      -0.016726    0.008233    0.065293
N      -1.372643   -0.517553    0.026849
C      -2.108296   -1.016862    1.064880
N      -3.319071   -1.375780    0.684672
C      -3.376655   -1.095214   -0.647587
O      -4.475113   -1.328729   -1.419095
C      -2.192130   -0.564771   -1.081106
O      -1.727871   -0.126942   -2.283844
H       1.072903    1.878413    0.029707
H      -0.406208    1.886353   -0.948780
H      -0.513205    1.985992    0.820339
H       0.546217   -0.431875   -0.763998
H       0.436043   -0.349402    0.994480
H      -1.704316   -1.096508    2.062053
H      -5.135301   -1.721194   -0.836454
H      -2.419592   -0.286927   -2.934806
