22

C       0.256689    1.354407   -0.600435
O       0.063465   -0.031555   -0.455909
C       1.053887   -0.795164   -1.100991
C       0.739560   -2.261257   -0.999008
C       1.653160   -3.332564   -1.596871
C       0.361913   -4.009599   -2.118113
N      -0.514586   -2.902549   -1.596021
C      -0.306305   -2.832646   -0.125573
C      -0.159308   -4.030238    0.784412
H       1.215897    1.681040   -0.167434
H       0.236030    1.661564   -1.657882
H      -0.557964    1.854379   -0.071237
H       1.132745   -0.506340   -2.164317
H       2.045733   -0.611016   -0.646021
H       2.278785   -2.948154   -2.406134
H       2.291514   -3.884396   -0.899732
H       0.293921   -4.041695   -3.207239
H       0.119192   -5.001687   -1.725683
H      -0.968050   -2.069528    0.274563
H       0.613800   -4.732428    0.464200
H       0.100330   -3.693334    1.793487
H      -1.105562   -4.578493    0.852941
