17

C      -0.226876    1.614722    0.080262
C      -0.027707    0.103788   -0.058859
C       0.804510   -0.510362    1.079935
C       0.764715   -2.028553    1.149563
O      -0.185636   -2.746814    0.997817
C       2.193305   -2.491620    1.433290
O       3.020010   -1.334469    1.303539
C       2.296776   -0.201390    1.047563
O       2.835158    0.845014    0.837760
H       0.733323    2.134214    0.104802
H      -0.811355    2.001997   -0.759391
H      -0.767787    1.855140    1.002497
H      -0.991280   -0.416601   -0.064927
H       0.457513   -0.124933   -1.014718
H       0.422797   -0.137621    2.043032
H       2.278536   -2.900968    2.446532
H       2.511070   -3.257375    0.719053
