19

C      -0.010890    1.505771    0.221971
C      -0.013919   -0.006573   -0.028859
C      -1.398828   -0.585394   -0.170646
O      -2.201814   -0.384913    1.094594
C      -2.596851   -1.727245    1.022300
C      -3.105210   -2.133078   -0.421323
C      -3.344739   -1.005754   -1.348975
C      -2.334037   -0.127853   -1.265117
C      -1.643261   -2.124694   -0.039245
H       1.008116    1.867839    0.385897
H      -0.426641    2.057956   -0.626617
H      -0.606775    1.746770    1.106311
H       0.548249   -0.246227   -0.940900
H       0.489670   -0.518730    0.798965
H      -2.976682   -2.198880    1.920579
H      -3.641061   -3.072270   -0.487060
H      -4.254947   -0.880978   -1.922848
H      -2.278463    0.842591   -1.739878
H      -0.930829   -2.933266   -0.148226
