20

C       0.068074    1.574138   -0.035339
C       0.132514    0.045951   -0.052920
C       0.661375   -0.538162    1.269914
C       0.660688   -2.032406    1.281685
N      -0.390233   -2.823409    1.146942
C       0.140512   -4.082145    1.213840
C      -0.684193   -5.320606    1.109673
N       1.454773   -4.114678    1.381660
N       1.767321   -2.793655    1.420643
H       1.057260    2.015238    0.132359
H      -0.312087    1.963082   -0.984640
H      -0.593459    1.933532    0.760694
H      -0.859852   -0.375986   -0.241150
H       0.773301   -0.293160   -0.875907
H       1.676134   -0.170271    1.465699
H       0.033881   -0.181939    2.095957
H      -1.218229   -5.351086    0.154706
H      -0.048308   -6.203882    1.189212
H      -1.437724   -5.351810    1.902962
H       2.724456   -2.508634    1.546892
