19

O      -0.025074   -0.125710   -0.227380
C       0.023126    1.072047   -0.113779
C       1.299757    1.885602   -0.068740
C       1.349833    2.921161   -1.174894
C       1.488533    2.498217   -2.669262
C       2.160928    3.850799   -2.881253
C       1.441881    4.866323   -1.979100
C       0.344674    4.114419   -1.233412
C       2.519896    3.969883   -1.420520
H      -0.911212    1.675262   -0.037660
H       1.335440    2.395622    0.905348
H       2.149166    1.197887   -0.126815
H       2.200978    1.676338   -2.785908
H       0.567128    2.265692   -3.216621
H       2.745316    4.180784   -3.730308
H       1.505957    5.928323   -2.177652
H      -0.617584    3.943671   -1.730891
H       0.173725    4.544242   -0.241376
H       3.450148    4.174727   -0.910730
