18

C      -0.071184    1.524017    0.042062
C       0.047377    0.029344   -0.040279
C      -0.251843   -0.783987   -1.297890
C      -0.696735   -1.917885   -0.342776
C       0.457337   -2.868980   -0.024271
O       1.733712   -2.432875   -0.526221
C       1.374049   -2.095657    0.818751
C       0.696972   -0.768010    1.047384
N      -0.774571   -0.907516    0.823858
H       0.777151    2.007595   -0.456038
H      -0.990295    1.867495   -0.444866
H      -0.092185    1.862579    1.082025
H      -1.114459   -0.350808   -1.811169
H       0.547903   -0.986029   -2.009561
H      -1.647304   -2.411869   -0.535943
H       0.318150   -3.944095    0.038293
H       2.004082   -2.519795    1.595467
H       0.956159   -0.223404    1.949855
