17

C       0.077741    1.557988    0.020881
C      -0.007908    0.029428    0.016904
C       0.752225   -0.596998    1.190521
C       0.697897   -2.151508    1.203319
C       1.552850   -2.663440    2.371747
O       2.718973   -2.918106    2.255190
C      -0.672331   -2.647751    1.320086
N      -1.750653   -3.044283    1.446919
H       1.116405    1.899357   -0.046097
H      -0.468229    1.982300   -0.826566
H      -0.351974    1.976693    0.937228
H      -1.057564   -0.283815    0.055588
H       0.398116   -0.362455   -0.924344
H       1.810463   -0.316595    1.150511
H       0.354021   -0.218390    2.139750
H       1.145792   -2.533319    0.279717
H       1.021920   -2.735498    3.344465
