19

C       0.131725    1.547619    0.054879
N      -0.002887    0.111139    0.097079
C      -1.300441   -0.469850    0.489051
C      -0.547069   -1.547029    1.300812
C      -1.042765   -2.153462    2.622511
C      -0.909832   -3.503338    1.892145
O      -0.450791   -2.847962    0.690847
C       0.693459   -0.636980    1.160214
H       1.167917    1.818505   -0.174523
H      -0.503502    1.958607   -0.737126
H      -0.147489    2.041234    1.007310
H      -1.903291    0.186224    1.141148
H      -1.920358   -0.828531   -0.339693
H      -0.376161   -2.009410    3.475353
H      -2.057236   -1.868781    2.909320
H      -0.158344   -4.193274    2.293821
H      -1.844273   -4.052383    1.726462
H       1.624536   -1.125667    0.853546
H       0.873135   -0.046491    2.075710
