17

N      -0.071033    1.400412    0.067332
C      -0.016689   -0.025902   -0.045813
C       0.906228   -0.730936   -1.037567
O       0.378871   -2.034446   -1.219024
C      -1.029472   -2.000864   -0.997843
C      -1.264688   -0.868356   -0.019904
C      -0.366818   -0.815103    1.210035
C       0.400203   -1.939541    1.670375
N       1.012950   -2.826870    2.089554
H       0.813415    1.769477    0.404843
H      -0.245361    1.825447   -0.839322
H       0.908452   -0.154090   -1.978945
H       1.940216   -0.838022   -0.693310
H      -1.579077   -1.799151   -1.931159
H      -1.322218   -2.987708   -0.627361
H      -2.245466   -0.417234    0.063745
H      -0.750230   -0.189648    2.009276
