17

C      -0.139045    1.621496   -0.109639
C       0.005899    0.126823    0.078089
O       0.873017   -0.517497   -0.965656
C       1.770436   -0.853035    0.107292
C       2.531212   -1.861614    1.035449
N       2.239967   -0.620073    1.941831
C       2.690147    0.211795    0.742395
C       0.809030   -0.656567    1.207684
H       0.818008    2.140977   -0.158445
H      -0.672981    1.818589   -1.044858
H      -0.727073    2.041960    0.712726
H      -0.981862   -0.344052    0.035207
H       2.001786   -2.765668    1.340363
H       3.604078   -2.026745    0.902545
H       3.763065    0.150812    0.546102
H       2.355010    1.245881    0.793168
H       0.229719   -1.496412    1.589796
