12

N       0.051141    1.258886    0.161539
C      -0.040213   -0.086776    0.042978
N      -1.137511   -0.797157   -0.051563
C      -0.680599   -2.088760   -0.081397
O      -1.510020   -3.126101   -0.174346
C       0.685903   -2.128113   -0.008871
O       1.099007   -0.784031    0.073172
C       1.642889   -3.143736   -0.007227
N       2.431745   -3.995901   -0.007591
H       0.939323    1.680200   -0.058116
H      -0.770717    1.778837   -0.099354
H      -2.409042   -2.774221   -0.202079
