17

C      -0.094658    1.482557   -0.020327
C      -0.049012   -0.018153    0.042228
N      -0.027663   -0.705006    1.117404
O      -0.048841    0.102444    2.262481
C       0.011659   -0.779602   -1.269284
C      -0.044656   -2.325311   -1.166547
O      -1.207954   -2.686803   -1.957511
C      -1.711508   -1.521581   -2.410439
N      -1.149324   -0.422561   -2.122700
H       0.899567    1.900728    0.178375
H      -0.428367    1.812168   -1.004633
H      -0.764478    1.874239    0.748142
H      -0.067040   -0.549972    2.970635
H       0.920451   -0.448543   -1.790905
H       0.826317   -2.817040   -1.604891
H      -0.195606   -2.674061   -0.145511
H      -2.603894   -1.625073   -3.018467
