21

C      -0.996346    1.141052   -0.036676
C       0.010707    0.006477   -0.089491
N       1.320780    0.344768   -0.700083
C       2.015374   -0.566141    0.229126
C       3.323468   -0.113772    0.702743
N       4.356390    0.226057    1.095170
C       0.774443   -0.475867    1.194512
C       0.938040    0.602713    2.263639
C       0.314444   -1.796498    1.797473
H      -0.568215    2.034323    0.423532
H      -1.318955    1.406913   -1.049255
H      -1.888233    0.844917    0.526474
H      -0.457204   -0.869651   -0.567500
H       1.431889    0.124410   -1.684426
H       2.130612   -1.594204   -0.145163
H       1.299967    1.541785    1.838361
H      -0.016423    0.795445    2.764106
H       1.657046    0.281855    3.024068
H       1.024899   -2.154275    2.550857
H      -0.656174   -1.676443    2.291601
H       0.207954   -2.575296    1.035464
