18

C       0.021155    1.537001   -0.002420
C       0.063733    0.030907    0.026742
C      -0.829864   -0.779398    0.957063
O      -1.591083   -1.880821    0.574873
C       0.655480   -0.832489    1.149436
C       1.335844   -1.995628    0.458350
O       0.908300   -1.945022   -0.921047
C       0.412271   -0.693613   -1.225638
N       0.259153   -0.255860   -2.398978
H       1.000971    1.957245   -0.251097
H      -0.687523    1.877267   -0.762378
H      -0.287510    1.939104    0.966931
H      -1.389639   -0.181900    1.669163
H      -1.167286   -2.314872   -0.175357
H       1.126109   -0.397442    2.023576
H       2.427542   -1.912268    0.496086
H       1.040182   -2.972057    0.854577
H       0.604633   -0.928491   -3.085124
