16

O      -0.065842   -0.088957   -0.000336
C      -0.031341    1.124589    0.009136
C      -1.304897    1.976055   -0.052495
O      -1.609363    2.722128    1.133450
C      -0.873129    3.735582    1.655752
O      -1.390024    4.439922    2.478012
C       0.603087    3.927982    1.302498
C       1.192070    3.292969    0.040908
N       1.126000    1.843215    0.040580
H      -1.286891    2.643878   -0.922645
H      -2.136468    1.282148   -0.162863
H       0.758373    5.010346    1.282693
H       1.153028    3.555529    2.175445
H       0.712494    3.700579   -0.857888
H       2.246177    3.573109   -0.024704
H       1.975503    1.301744    0.094852
