23

C       0.072934    1.460935   -0.192576
C       0.011917   -0.032562    0.141992
O       0.702209   -0.313091    1.361821
C      -1.400193   -0.558568    0.164584
C      -2.119337   -1.012183   -1.081028
C      -1.921544   -1.998787    0.041087
C      -1.182688   -3.295914   -0.123120
C      -2.968542   -1.722527    1.129828
C      -2.438455   -0.257256    1.257514
H       1.109651    1.808834   -0.189622
H      -0.365128    1.662193   -1.174876
H      -0.487654    2.046976    0.546642
H       0.573360   -0.588622   -0.619460
H       0.335321    0.262831    2.040959
H      -3.107610   -0.624148   -1.322875
H      -1.483892   -1.170420   -1.948434
H      -0.354034   -3.198023   -0.832084
H      -0.765671   -3.639116    0.830190
H      -1.845679   -4.084260   -0.501241
H      -4.016130   -1.844446    0.833541
H      -2.795597   -2.302816    2.039852
H      -1.990323   -0.075570    2.238476
H      -3.148524    0.549334    1.045374
