17

C      -0.112306    1.353906   -0.016580
N      -0.201808   -0.089066   -0.196231
C       0.555304   -0.657797   -1.007506
O       1.555491   -0.164764   -1.828864
C       1.948676   -1.502597   -2.247567
C       0.795205   -2.130694   -1.404866
N       1.231109   -3.066490   -0.377614
C      -0.288101   -2.699728   -2.192064
C      -1.186654   -3.159265   -2.843128
H       0.732411    1.817652   -0.539030
H      -1.039682    1.816509   -0.372329
H      -0.034345    1.575191    1.052960
H       1.881142   -1.621308   -3.329543
H       2.946860   -1.758893   -1.883138
H       1.801250   -2.576632    0.307337
H       0.418313   -3.416068    0.121132
H      -1.984766   -3.564103   -3.415338
