14

O       0.119716    1.436893    0.197139
C       0.028145    0.091158    0.002278
C      -1.146795   -0.888122   -0.105368
N      -0.435042   -1.618759   -1.154652
C       0.677163   -0.717749   -1.085690
N       1.735515   -0.531317   -1.737888
C      -0.331423   -0.811033    1.180748
C       0.483211   -1.911658    1.622364
N       1.122138   -2.823887    1.935157
H       0.398643    1.836414   -0.636060
H      -2.215864   -0.728554   -0.142721
H      -0.259750   -2.611714   -1.024455
H       1.877401   -1.245111   -2.454506
H      -0.811084   -0.244686    1.975186
