23

C      -0.101133    1.562545    0.035542
C       0.034447    0.035284    0.007818
C       0.656843   -0.464064   -1.307375
C       0.874514   -1.978355   -1.268511
C       1.920859   -2.384884   -0.217927
O       3.244303   -2.068964   -0.660485
C       1.696402   -1.694623    1.125659
C       2.279487   -0.320294    1.357760
C       0.789617   -0.481395    1.225545
H       0.883159    2.040812   -0.011830
H      -0.693278    1.922599   -0.813124
H      -0.591131    1.901822    0.954492
H      -0.978627   -0.392155    0.058187
H      -0.000394   -0.193098   -2.141214
H       1.615238    0.036390   -1.493208
H      -0.073862   -2.480150   -1.033551
H       1.189230   -2.355294   -2.250821
H       1.844427   -3.470700   -0.056226
H       3.382324   -2.518079   -1.501157
H       1.702339   -2.363318    1.979982
H       2.691129   -0.100896    2.336745
H       2.836395    0.114370    0.536384
H       0.227324   -0.395176    2.152345
