14

O       0.439167    0.954891   -0.577136
C      -0.064067   -0.152912    0.122843
C       0.029057   -0.161481    1.675610
C      -1.460759   -0.644059    1.719377
C      -1.601163   -0.163815    0.234759
C      -1.606548   -2.081440    1.890146
N      -1.714453   -3.225735    2.020014
H       1.384497    0.834509   -0.710716
H       0.306864   -1.098574   -0.294567
H       0.776916   -0.795279    2.154238
H       0.106227    0.859918    2.055548
H      -2.101698   -0.137420    2.443359
H      -1.984977    0.858434    0.204356
H      -2.168315   -0.792577   -0.451729
