19

C      -0.056105    1.583196    0.038409
C       1.488047    1.488777    0.014706
N       1.375344    0.076218    0.443198
C      -0.035373    0.036697   -0.003955
C       2.296650   -0.883341   -0.102662
C       3.711652   -0.874505    0.516893
O       3.569605   -2.232813    0.979086
C       2.212114   -2.303777    0.498479
H      -0.438688    1.972431    0.983361
H      -0.538292    2.099737   -0.791462
H       1.889803    1.596715   -1.006998
H       2.062485    2.132222    0.688633
H      -0.714160   -0.514396    0.654623
H      -0.149287   -0.346884   -1.031975
H       2.304153   -0.876971   -1.208009
H       4.549541   -0.764906   -0.181820
H       3.828290   -0.164944    1.345456
H       1.487181   -2.396355    1.316708
H       2.071529   -3.126803   -0.212248
