20

C       0.029750    1.477005    0.015439
C      -0.010419   -0.031295   -0.054985
C       0.702803   -0.718026   -1.155279
N       1.289209   -0.673478    0.234123
C       1.154344   -2.186461    0.270051
C      -0.195242   -2.795483   -0.020185
C       0.643040   -2.260732   -1.147527
C       1.125774   -3.081269   -2.305949
O       1.392814   -4.396522   -1.842617
H       0.967698    1.859490   -0.396294
H      -0.802633    1.912719   -0.547471
H      -0.044399    1.814759    1.053990
H      -0.912726   -0.469494    0.358651
H       1.177664   -0.167928   -1.964029
H       1.948693   -2.734814    0.759370
H      -0.165066   -3.878814    0.034612
H      -1.144085   -2.367045    0.282036
H       0.364865   -3.088827   -3.105544
H       2.033408   -2.616602   -2.727108
H       1.659277   -4.931542   -2.595374
