13

O      -0.069701    0.118125    0.522012
C       0.025564    1.221023    0.109806
O      -1.003888    2.054630   -0.323656
C      -0.084736    3.124801   -0.678766
C       0.198486    4.112392    0.481334
N       1.206308    3.172834    1.047330
C       1.110600    2.285262   -0.132533
C      -0.267413    3.608892   -2.025829
N      -0.377073    4.027226   -3.097589
H       0.617343    5.054960    0.115654
H      -0.655546    4.311745    1.133518
H       2.123947    3.580828    1.170227
H       2.016737    2.015731   -0.672361
