17

C       0.131144    1.465611    0.394699
C      -0.202705    0.032594   -0.044625
O      -1.571852   -0.075757   -0.315961
C       0.603852   -0.420288   -1.260019
O       0.040307   -0.819130   -2.250734
C       2.155216   -0.411752   -1.190555
O       2.687382   -1.552187   -1.780642
C       2.663467    0.842514   -1.899305
O       3.308898    0.749741   -2.912224
H       1.166306    1.565606    0.735999
H      -0.053317    2.172914   -0.419404
H      -0.524030    1.732650    1.227004
H       0.083233   -0.654903    0.773680
H      -1.635562   -0.484626   -1.193650
H       2.457017   -0.353048   -0.133582
H       3.053845   -1.264587   -2.632116
H       2.405254    1.820285   -1.452343
