15

N      -0.093240    1.140399    0.471930
C      -0.025286   -0.034875    0.016832
O       1.158079   -0.618871   -0.468569
C       0.790231   -1.865212   -1.038380
C       1.066549   -3.319726   -0.566996
C       0.392904   -3.724360    0.682847
N      -0.471995   -3.564020   -0.523523
C      -0.590822   -2.116950   -0.595886
C      -1.112690   -1.048604    0.005529
H       0.820588    1.594088    0.444662
H       0.944998   -1.830107   -2.122866
H       1.709930   -4.000572   -1.113265
H       0.511600   -4.762451    0.978202
H       0.262107   -3.021752    1.499564
H      -2.026811   -0.912531    0.562305
