21

C       0.142337    1.562377    0.028426
C       0.011753    0.066766   -0.051395
C       0.021605   -0.574278   -1.232542
C      -0.108748   -1.991866   -1.572014
C       0.051870   -3.159955   -0.922227
C       0.466048   -3.519963    0.493744
C       1.470615   -2.611621    1.164746
C       1.211943   -1.366362    1.557281
C      -0.093785   -0.669004    1.275260
H       1.014382    1.850765    0.630802
H       0.246595    2.019131   -0.959103
H      -0.731376    2.007443    0.523373
H       0.092491    0.060543   -2.114896
H      -0.398463   -2.118117   -2.615412
H      -0.164596   -4.041525   -1.524557
H      -0.438314   -3.615287    1.114349
H       0.882509   -4.532285    0.458386
H       2.465962   -3.020358    1.319382
H       1.998133   -0.772672    2.018130
H      -0.338934    0.037168    2.075378
H      -0.910845   -1.395830    1.221450
