25

C       0.081555    1.554335    0.050051
C       0.181741    0.027105    0.037830
C       0.572652   -0.533483   -1.343942
C       0.670394   -2.031173   -1.382393
C      -0.136615   -2.857599   -2.052271
C       0.185749   -4.312938   -1.820278
C       1.579056   -4.245768   -1.151194
C       1.702161   -2.811601   -0.572595
C       3.130059   -2.255807   -0.629584
H       1.037084    2.016422   -0.222693
H      -0.670454    1.907633   -0.664368
H      -0.198374    1.928262    1.039933
H       0.914459   -0.297158    0.787274
H      -0.777082   -0.411944    0.339928
H      -0.162485   -0.199776   -2.086461
H       1.532870   -0.086801   -1.639646
H      -0.970273   -2.533997   -2.668267
H      -0.562493   -4.777501   -1.161167
H       0.189495   -4.907710   -2.741090
H       1.733186   -5.020590   -0.394995
H       2.353226   -4.382983   -1.915318
H       1.388606   -2.813545    0.483345
H       3.482837   -2.190962   -1.665222
H       3.198617   -1.256332   -0.187719
H       3.820589   -2.905490   -0.081267
