19

C       0.043181    1.559857    0.011342
C       0.008853    0.028082    0.039975
C       0.820350   -0.522806    1.218631
C      -1.478236   -0.510924    0.047019
N      -2.291745   -0.136507    1.215836
C      -2.172748   -0.055931   -1.167264
C      -2.720978    0.337987   -2.159736
C      -1.427512   -1.994529    0.007489
N      -1.345688   -3.146419   -0.010848
H       1.077730    1.905684   -0.068876
H      -0.516496    1.961956   -0.836469
H      -0.370511    1.985814    0.932284
H       0.452014   -0.346923   -0.890227
H       0.441307   -0.150346    2.177379
H       0.813979   -1.615573    1.246125
H       1.860311   -0.194129    1.136910
H      -1.801766   -0.378293    2.071839
H      -2.442767    0.866820    1.210394
H      -3.217785    0.671620   -3.037792
