16

N      -0.083561    1.336238    0.218830
C      -0.002717    0.131858   -0.137910
O       1.032441   -0.394169   -0.857818
C       1.270099   -1.795391   -0.667091
C       0.029049   -2.592196   -1.029205
C       0.041963   -3.706731   -1.980506
O       0.032186   -3.940565   -0.565763
C      -1.221827   -1.764197   -0.800466
O      -0.980382   -0.747592    0.179836
H       0.780020    1.821244   -0.018143
H       2.128397   -2.043734   -1.292826
H       1.526556   -1.994994    0.380328
H      -0.872293   -3.985383   -2.504132
H       0.966398   -3.966875   -2.494417
H      -1.558068   -1.295654   -1.733719
H      -2.023211   -2.388627   -0.402909
