17

C       0.084346   -1.178262   -0.051684
C      -0.017733    0.022385   -0.020514
C      -0.071943    1.438880    0.021010
C      -1.214561    2.146080    0.048069
C      -1.072857    3.650366    0.072979
C      -0.091827    4.055983    1.200705
C       0.940756    3.719014    0.102413
C       1.244067    2.216604    0.027491
O      -0.059748    4.035006   -0.909240
H       0.154870   -2.237213   -0.082134
H      -2.189025    1.671782    0.057564
H      -2.010242    4.192335   -0.061387
H      -0.120752    5.127557    1.404247
H      -0.097498    3.478090    2.126532
H       1.837949    4.335956    0.006780
H       1.866617    1.901402    0.874024
H       1.811681    1.991960   -0.883186
