19

C       0.178505    1.079605   -0.462463
N      -0.087306    0.005586    0.504238
C      -1.223557   -0.762914    0.277991
C      -1.342702   -2.066220   -0.119675
N      -0.286198   -2.923443   -0.422780
C      -0.423773   -4.330192   -0.076043
C      -2.752066   -2.332158   -0.218700
C      -3.376717   -1.171121    0.113534
O      -2.485742   -0.199969    0.408285
H       1.123449    1.567971   -0.205090
H       0.278724    0.642077   -1.459540
H      -0.612134    1.842463   -0.500362
H      -0.052449    0.365866    1.452428
H       0.586874   -2.522562   -0.102783
H      -0.631671   -4.511860    0.991042
H      -1.234172   -4.781324   -0.657377
H       0.498520   -4.852608   -0.343384
H      -3.229622   -3.257707   -0.497955
H      -4.417106   -0.898015    0.187855
