16

O       0.021977    1.419092   -0.135075
C      -0.012917    0.037257    0.155059
C      -1.387303   -0.543806    0.037340
O      -2.333239   -0.084834    1.133344
C      -3.139473   -1.056044    0.526944
N      -4.146839   -0.745858   -0.173446
C      -3.610765   -0.999664   -1.560080
C      -2.082470   -1.103043   -1.321427
C      -1.949356   -1.886256   -0.057646
H      -0.593154    1.854457    0.465764
H       0.644057   -0.456187   -0.568404
H       0.368812   -0.179823    1.164395
H      -3.997195   -1.899166   -2.061961
H      -3.907859   -0.123485   -2.143543
H      -1.392108   -1.230792   -2.152259
H      -1.589204   -2.876422    0.187986
