22

C      -0.033915    1.558722   -0.021644
C       0.013665    0.029177    0.001118
C       0.715703   -0.526114   -1.244575
O       0.777182   -1.940802   -1.243532
C       1.491627   -2.446828   -0.130596
C       0.852331   -2.046790    1.205152
C       1.646342   -2.600434    2.390611
C       0.715128   -0.516666    1.255154
H       0.975901    1.985911   -0.027638
H      -0.558005    1.930485   -0.908845
H      -0.552183    1.949273    0.860182
H      -1.015020   -0.357232   -0.011335
H       0.178578   -0.245014   -2.156181
H       1.734819   -0.101553   -1.310296
H       1.507708   -3.535186   -0.247926
H       2.538216   -2.090279   -0.156900
H      -0.156751   -2.481726    1.220863
H       2.668367   -2.203463    2.402231
H       1.175699   -2.327968    3.340876
H       1.713965   -3.693137    2.352736
H       1.718797   -0.069409    1.327198
H       0.174654   -0.210499    2.159511
