20

O       0.099225    1.401191   -0.143617
C       0.041009   -0.014199   -0.002775
C      -1.376136   -0.533485    0.011083
C      -2.236038   -0.368412    1.306837
C      -2.533434   -1.901164    1.303539
C      -1.687564   -2.068337    0.006672
C      -2.398762   -1.881654   -1.352539
N      -3.502657   -0.911689   -1.152478
C      -2.120056   -0.416374   -1.341755
H      -0.382585    1.784787    0.596750
H       0.582942   -0.417279   -0.866664
H       0.573475   -0.348762    0.902481
H      -1.650028   -0.037222    2.170528
H      -3.114141    0.269712    1.200714
H      -2.111256   -2.432445    2.159846
H      -3.586709   -2.164466    1.201151
H      -0.878336   -2.800248    0.002745
H      -2.436678   -2.585475   -2.175655
H      -3.980824   -0.813803   -2.047268
H      -1.883646    0.272746   -2.143840
