19

C       0.013772    1.537598   -0.092172
C       0.002468    0.042499    0.002375
C       0.481140   -1.046249   -0.948339
C       1.227887   -1.751046    0.180698
C       0.471190   -0.828558    1.209143
C      -0.761486   -1.588221    1.675819
O      -1.007741   -1.965467    2.791449
C      -1.642643   -1.798106    0.426500
C      -1.000045   -0.903754   -0.617616
H       1.012506    1.948689    0.094200
H      -0.298399    1.863293   -1.090140
H      -0.671823    1.991082    0.633666
H       0.826700   -0.948119   -1.971466
H       1.114130   -2.835280    0.293910
H       2.292639   -1.508117    0.172409
H       1.061000   -0.391339    2.011882
H      -1.676602   -2.862180    0.166932
H      -2.668937   -1.492111    0.654960
H      -1.609838   -0.517716   -1.427285
