21

C      -0.155828    1.537301   -0.110532
C       0.008004    0.031244   -0.029646
C       1.299809   -0.712812   -0.275203
C       2.636681    0.007039   -0.312735
O       2.766189    1.017993    0.688605
C       2.640118    0.541076    1.996957
C       1.505018    1.099885    2.809730
C       1.432926   -0.316035    2.274032
C       0.631731   -0.791694    1.088808
H       0.757386    2.072775    0.143804
H      -0.432395    1.819223   -1.133056
H      -0.961142    1.881623    0.548481
H      -0.855095   -0.485511   -0.445955
H       1.269797   -1.588405   -0.918400
H       3.448395   -0.731446   -0.209912
H       2.782411    0.530240   -1.263483
H       3.590750    0.317455    2.479742
H       1.658149    1.217311    3.877132
H       0.898047    1.869891    2.353611
H       1.569180   -1.092693    3.020523
H       0.089745   -1.707519    1.302825
