19

C       0.152740    1.471251    0.096204
C       0.030693   -0.044550   -0.063841
N       0.671008   -0.529783   -1.274076
N      -0.010270   -0.854851   -2.356808
C       0.931441   -1.175305   -3.250038
C       2.192915   -1.012623   -2.641181
N       3.458980   -1.177094   -3.169755
C       3.624472   -2.055989   -4.313648
N       2.003886   -0.603140   -1.382422
H       1.203819    1.768472    0.128876
H      -0.330231    1.988205   -0.737705
H      -0.328168    1.788605    1.026426
H       0.492864   -0.560527    0.782677
H      -1.013444   -0.354226   -0.133794
H       0.669698   -1.500817   -4.242860
H       4.161282   -1.282515   -2.452088
H       4.682692   -2.093536   -4.581662
H       3.269632   -3.083985   -4.139009
H       3.082294   -1.653487   -5.175811
