22

C       0.110559    1.528855   -0.047167
C       0.013362    0.007056    0.108461
C      -1.412055   -0.529635    0.024232
O      -2.233003   -0.051554    1.079534
C      -2.151181   -0.463228   -1.373641
C      -2.315595   -1.991106   -1.314884
C      -3.452566   -2.798406   -1.857288
N      -0.926750   -2.519644   -1.266576
C      -1.587579   -2.053650   -0.019467
H       1.152361    1.860171   -0.007937
H      -0.306484    1.863514   -1.003684
H      -0.419528    2.056745    0.754829
H       0.603401   -0.488844   -0.667834
H       0.432907   -0.291612    1.077347
H      -2.279777    0.907424    1.006521
H      -3.098864    0.071156   -1.274762
H      -1.585887   -0.085719   -2.230004
H      -3.429536   -2.832943   -2.953195
H      -3.413092   -3.829758   -1.488796
H      -4.415253   -2.371537   -1.556717
H      -0.993472   -3.537876   -1.267640
H      -1.714022   -2.706018    0.836859
