17

O      -0.487842    1.399523   -0.582343
C      -1.007806    0.107009   -0.662581
C      -0.760597   -0.661334    0.621890
O      -0.152004   -0.143703    1.535093
C      -1.295229   -2.076924    0.752075
C      -2.458830   -2.176286    1.774643
O      -3.300113   -3.154540    1.191386
C      -3.211224   -2.926569   -0.187351
O      -1.863333   -2.561651   -0.459031
H      -0.069754    1.454856    0.291808
H      -2.092610    0.117417   -0.858871
H      -0.564552   -0.466680   -1.492103
H      -0.462285   -2.725968    1.049006
H      -2.141098   -2.519422    2.758854
H      -2.978782   -1.212014    1.877669
H      -3.455825   -3.849197   -0.720241
H      -3.886537   -2.110789   -0.500755
