19

C      -0.067777    1.589960    0.062310
C       0.089652    0.084836    0.031922
C       1.374504   -0.665908   -0.284676
C       2.624856    0.144959   -0.114447
C       2.844637    0.352868    1.183728
C       3.041891    1.458990    2.192491
O       1.736748    1.105090    2.745468
C       1.775447   -0.215382    2.064782
C       0.721949   -0.750845    1.120656
H       0.802626    2.094567    0.478282
H      -0.243786    1.975544   -0.948371
H      -0.929277    1.864918    0.679491
H      -0.782057   -0.414178   -0.388068
H       1.325359   -1.494817   -0.983506
H       3.117088    0.641764   -0.943060
H       3.838621    1.300502    2.931482
H       3.078266    2.489205    1.824217
H       2.069733   -0.970582    2.805179
H       0.198965   -1.653106    1.415063
