21

C      -0.085138    1.700518    0.021066
C       0.104216    0.174948    0.057768
C       0.910807   -0.242132    1.295905
C      -1.282810   -0.542859    0.066230
C      -2.131294   -0.209752    1.203084
C      -2.826033    0.071423    2.143646
C       0.783782   -0.253365   -1.239241
C       2.215705   -0.537611   -1.391794
O       1.257302   -1.598872   -1.333857
H       0.882539    2.211764   -0.004473
H      -0.654341    2.011708   -0.862400
H      -0.630360    2.040963    0.905446
H       0.317169   -0.086617    2.200357
H       1.185698   -1.299390    1.240133
H       1.825754    0.350186    1.392119
H      -1.815739   -0.295549   -0.861588
H      -1.109692   -1.625533    0.041317
H      -3.448510    0.310686    2.969844
H       0.253365    0.078456   -2.136030
H       2.689816   -0.391760   -2.361538
H       2.883472   -0.468936   -0.536496
