14

C       0.009409    1.381000    0.057497
O       0.024530   -0.047498   -0.020923
C       0.613233   -0.587844   -1.098206
C       0.643006   -1.992625   -1.200984
N       1.210260   -2.562235   -2.240769
C       1.731470   -1.714304   -3.147917
O       2.319722   -2.255389   -4.224918
N       1.727135   -0.391314   -3.093607
N       1.147855    0.177408   -2.032288
H       1.026577    1.782537    0.069809
H      -0.524513    1.813532   -0.793290
H      -0.504945    1.613415    0.990200
H       0.202625   -2.620845   -0.431267
H       2.246401   -3.213806   -4.126952
