18

C      -0.019620    1.537959    0.054070
C      -0.052392    0.043015   -0.026617
C       0.104947   -0.778989   -1.127880
N       0.469689   -0.749245   -2.478866
C       0.215282   -2.122530   -2.987514
C       0.327407   -3.019979   -1.726832
N      -0.030869   -2.055996   -0.708579
N      -0.213631   -2.170676    0.626659
C      -0.253158   -0.898324    1.022642
H       0.821534    1.958479   -0.509104
H      -0.934348    2.004726   -0.333946
H       0.089389    1.863340    1.092799
H       0.025200   -0.024704   -3.027210
H      -0.793244   -2.210534   -3.413491
H       0.941968   -2.393437   -3.756427
H      -0.356390   -3.871052   -1.749688
H       1.348904   -3.390822   -1.575194
H      -0.427192   -0.672552    2.066474
