19

C       0.124450    1.501311    0.041617
C       0.047728    0.047912    0.049155
C      -0.016323   -1.155171    0.067145
C      -0.070751   -2.590804    0.048600
N      -0.631436   -3.289222    1.239727
C      -1.348695   -3.376320   -0.040549
C      -2.677434   -2.652828   -0.068263
C      -1.314038   -4.687626   -0.799262
H       1.092904    1.845536   -0.338217
H      -0.654516    1.941488   -0.591088
H       0.001599    1.909712    1.050940
H       0.790523   -3.061500   -0.423525
H      -0.095462   -4.139673    1.402283
H      -2.623470   -1.725868    0.504413
H      -2.966860   -2.411031   -1.096754
H      -3.462169   -3.282423    0.365826
H      -2.019619   -5.404048   -0.361989
H      -1.596266   -4.545337   -1.848094
H      -0.316148   -5.138253   -0.777149
