20

C      -0.120747    1.604882    0.025954
C       0.033859    0.082646   -0.025941
C       0.742743   -0.508567    1.215284
C       0.018398   -0.124709    2.433102
N      -0.583859    0.190823    3.367745
C       0.905392   -2.063845    1.162627
C       1.673557   -2.533842   -0.089491
C       1.571673   -2.546023    2.371049
C       2.151585   -2.933937    3.349239
H       0.854006    2.098968    0.101921
H      -0.609467    1.970085   -0.881734
H      -0.722785    1.916263    0.883979
H      -0.949382   -0.391809   -0.129153
H       0.614564   -0.192125   -0.910748
H       1.748399   -0.073932    1.287315
H      -0.104956   -2.492965    1.130793
H       1.120177   -2.317727   -1.006036
H       2.653785   -2.050386   -0.147742
H       1.834804   -3.612886   -0.037256
H       2.641973   -3.276885    4.226661
