16

O       0.000363    1.383635    0.136322
C      -0.026270   -0.013746    0.036029
C       1.026762   -0.612205   -0.876369
C       0.918122   -0.175000   -2.328468
F       1.166515    1.129811   -2.490690
F       1.809631   -0.845650   -3.082804
F      -0.298933   -0.423345   -2.836426
C      -0.468144   -0.793014    1.252680
C      -1.402420   -0.600821    0.074225
H       0.822626    1.641435    0.568530
H       2.034680   -0.346785   -0.535666
H       0.958793   -1.703419   -0.865845
H      -0.048980   -1.777431    1.432710
H      -0.672217   -0.211851    2.144615
H      -2.217107    0.103249    0.192800
H      -1.619837   -1.447944   -0.565149
