17

C       0.031187    1.425280   -0.214911
C       0.014230   -0.087899    0.078889
C       0.691168   -0.392641    1.339068
C       1.273131   -0.602599    2.368230
N      -1.351941   -0.619657    0.067467
C      -2.055904   -0.988919   -1.060839
C      -3.310095   -1.317942   -0.621158
N      -3.401640   -1.159367    0.741800
C      -2.216386   -0.736627    1.119348
H       1.061341    1.787449   -0.259456
H      -0.458170    1.623247   -1.171884
H      -0.498606    1.968850    0.570826
H       0.549096   -0.604712   -0.727282
H       1.784607   -0.805226    3.277153
H      -1.598848   -0.987050   -2.037046
H      -4.147317   -1.667961   -1.205925
H      -1.910170   -0.514586    2.129707
