20

C       0.074789    1.459821    0.285124
C      -0.065394   -0.011906   -0.144146
C      -1.482998   -0.496998   -0.153451
C      -2.224743   -0.917450   -1.183467
C      -3.535483   -1.435387   -0.654053
C      -3.275107   -2.767638    0.126622
C      -3.086181   -1.886525    1.347960
C      -2.330871   -0.608772    1.074771
N      -3.753895   -0.708150    0.686210
H       1.125318    1.765912    0.279044
H      -0.477256    2.116789   -0.393586
H      -0.313437    1.623556    1.295297
H       0.365962   -0.144248   -1.142365
H       0.528486   -0.637813    0.536295
H      -1.898911   -1.032799   -2.210291
H      -4.394880   -1.401545   -1.322227
H      -4.193258   -3.351000    0.226896
H      -2.459026   -3.414875   -0.208560
H      -3.321494   -2.177052    2.368047
H      -2.136387    0.022740    1.937099
