16

N      -0.041373   -1.147880   -0.074574
C       0.005263    0.008314   -0.021564
C       0.016672    1.426495    0.087886
N       0.251449    2.328507   -1.080683
C       1.159812    2.404233    0.073592
C       0.470322    3.280008    1.132555
C      -0.701670    2.270627    1.136093
C      -2.154484    2.407246    1.337362
N      -1.295529    1.760888    2.357841
H       0.710055    1.773629   -1.804975
H       2.216146    2.190350   -0.026507
H       0.986945    3.279873    2.094191
H       0.251421    4.300994    0.814410
H      -2.573151    3.363371    1.638032
H      -2.813345    1.787535    0.734738
H      -1.393540    0.747812    2.318179
