16

O      -0.086703    0.071106   -0.496961
C       0.098401    1.017410    0.229563
C       1.235691    1.957595    0.076660
C       2.091311    1.999499   -1.140397
N       2.704471    1.456359    0.064306
C       3.072222    2.645904    0.925956
C       1.611795    3.087776    1.004870
C       0.950455    4.360401    1.291727
O       0.952674    3.277570    2.241260
H      -0.578824    1.248547    1.077104
H       1.872581    1.241432   -1.885880
H       2.417187    2.965437   -1.522986
H       3.454599    2.307674    1.890655
H       3.790651    3.322236    0.452210
H       1.545072    5.226038    1.579255
H      -0.015531    4.585581    0.842060
