14

C      -0.026367    1.534703    0.107959
C      -0.017767    0.054173   -0.047922
C       0.032913   -0.779298   -1.161361
C       0.012797   -2.105667   -0.677224
N      -0.046191   -2.117828    0.642737
N      -0.063199   -0.804782    0.989757
N       0.093408   -0.368945   -2.525839
O       0.132314   -1.249586   -3.379249
O       0.102745    0.840452   -2.759573
H       0.870022    1.973261   -0.337611
H      -0.880440    1.971333   -0.415764
H      -0.073774    1.815015    1.163925
H       0.039398   -3.019037   -1.249036
H      -0.107314   -0.563686    1.967146
