18

N      -0.039178    1.278566   -0.042554
C       0.027172   -0.062255    0.061560
O       1.052165   -0.724338    0.122408
C      -1.340346   -0.728442    0.099912
N      -2.399832   -0.006676    0.024669
C      -3.671110   -0.725589    0.058134
C      -3.576147   -2.159842   -0.485930
C      -2.437826   -2.914981    0.210565
N      -1.254809   -2.076354    0.213245
H       0.804796    1.822782   -0.077068
H      -0.955078    1.699768   -0.085813
H      -4.044094   -0.743236    1.093466
H      -4.406284   -0.153459   -0.518427
H      -4.521209   -2.692358   -0.344271
H      -3.376079   -2.122535   -1.562685
H      -2.730757   -3.177904    1.237687
H      -2.215618   -3.852448   -0.310136
H      -0.317946   -2.450770    0.237504
