18

C      -0.077662    1.459547    0.022183
C       0.059475   -0.041267    0.015558
C       0.751575   -0.727284   -1.191963
C       0.445239   -2.154405   -0.760960
C       0.446228   -2.161202    0.772850
C       0.752944   -0.737936    1.216164
C      -0.849547   -2.029195    0.007358
O      -1.242010   -0.671891    0.013529
H       0.908385    1.933682    0.020489
H      -0.625922    1.800579   -0.860841
H      -0.619572    1.793707    0.911728
H       0.275213   -0.455354   -2.138698
H       1.820382   -0.500336   -1.244030
H       0.698029   -3.026536   -1.348458
H       0.699832   -3.038496    1.352255
H       1.821797   -0.511426    1.269145
H       0.277548   -0.474422    2.165760
H      -1.663693   -2.739749    0.004741
