20

C      -0.056313    1.578528    0.015646
C       0.068352    0.052919    0.033793
C      -1.209476   -0.609500   -0.486353
C       1.260133   -0.861195   -0.327572
N       2.684781   -0.557741    0.083122
C       2.791749    0.767149    0.714790
C       2.172199   -0.339798    1.483542
C       0.742926   -0.790264    1.083523
O       0.119484   -1.783266    1.821517
H       0.391671    2.020163   -0.881110
H      -1.116294    1.854399    0.010244
H       0.389499    2.051647    0.892452
H      -1.430721   -0.256558   -1.499440
H      -1.135651   -1.698397   -0.504664
H      -2.062689   -0.347672    0.150158
H       1.142100   -1.616495   -1.094542
H       3.822055    0.997860    0.978328
H       2.240188    1.609662    0.329280
H       2.670217   -0.816778    2.322594
H      -0.445248   -1.361927    2.479660
