16

C       0.001784    1.425882   -0.073069
C      -0.022666   -0.066757    0.044766
O       0.023054   -0.736633   -1.211312
C      -0.500825   -1.994225   -1.032214
O      -0.634107   -2.779795   -1.914628
N      -0.757160   -2.208244    0.380608
C       0.650938   -2.268748    0.992606
C       0.594820   -0.774413    1.254313
C      -0.901473   -0.833197    0.956078
H       0.948122    1.768962   -0.501386
H      -0.812905    1.771745   -0.715706
H      -0.113512    1.884514    0.913057
H       0.607230   -2.867239    1.904048
H       1.423989   -2.664948    0.326423
H       1.123323   -0.220391    2.020746
H      -1.793420   -0.520653    1.484098
