19

C       0.211644    1.367246   -0.110299
C      -0.055649   -0.094703   -0.062563
C      -1.191797   -0.848609   -0.018810
C      -2.612911   -0.375924   -0.002135
C      -0.750184   -2.218731    0.004912
C       0.606040   -2.202122   -0.018365
C       1.664894   -3.247870   -0.034943
O       2.383372   -3.305026   -1.264263
O       1.046777   -0.907266   -0.057691
H       0.756049    1.647931   -1.019674
H      -0.726777    1.925220   -0.094021
H       0.815250    1.693388    0.744640
H      -3.172707   -0.760069   -0.862747
H      -3.137734   -0.715800    0.898252
H      -2.677439    0.715022   -0.028343
H      -1.374690   -3.099175    0.033566
H       2.356110   -3.094107    0.809192
H       1.196659   -4.227014    0.095209
H       2.727266   -2.420708   -1.428907
