18

O       0.402311    0.944529   -0.784156
C       0.044677   -0.168440   -0.003891
C       0.412347   -0.071190    1.492622
C      -0.548666   -1.039646    2.231325
C      -1.559621   -1.538510    1.162359
C      -1.478403   -0.507798    0.013334
C      -2.258410    0.698399    0.268480
C      -2.850926    1.725120    0.479067
H      -0.166924    1.676343   -0.512167
H       0.560302   -1.021413   -0.459821
H       1.468321   -0.295658    1.660015
H       0.249344    0.961065    1.819979
H      -0.019965   -1.880208    2.688079
H      -1.068996   -0.520205    3.039879
H      -1.249033   -2.512193    0.768746
H      -2.573044   -1.653492    1.551821
H      -1.790590   -0.937149   -0.944304
H      -3.406797    2.611423    0.662360
