25

C       0.061988    1.595536   -0.108831
C      -0.068408    0.074834    0.034565
C       0.625701   -0.499866    1.280396
C      -0.049703   -0.095992    2.603538
C       0.695720   -0.712581    3.795191
C       0.858433   -2.219266    3.595304
O       1.483655   -2.521692    2.358331
C       0.791976   -2.035938    1.205079
C      -0.499731   -2.824817    0.946427
H       1.114063    1.899633   -0.144863
H      -0.416556    1.944499   -1.029205
H      -0.407762    2.126003    0.725147
H      -1.131181   -0.198599    0.045400
H       0.358116   -0.401212   -0.858885
H       1.650062   -0.099720    1.306297
H      -0.076681    0.994324    2.700036
H      -1.096285   -0.430749    2.606332
H       1.690447   -0.257561    3.880355
H       0.166729   -0.517426    4.735456
H       1.503435   -2.654187    4.365073
H      -0.122493   -2.715801    3.672492
H       1.481256   -2.257148    0.381114
H      -1.295919   -2.589384    1.658287
H      -0.882485   -2.619864   -0.057234
H      -0.286331   -3.895077    1.017403
