23

C       0.034904    1.485994    0.119179
C       0.024892   -0.010489    0.000528
C      -0.970031   -0.876968    0.800619
C      -1.079572   -2.246380    0.133753
C       0.421975   -2.071266   -0.210938
C       0.524220   -1.037810    0.984825
C       0.500152   -0.855712   -1.198213
C      -0.357080   -0.865679   -2.464969
C       1.960164   -0.555645   -1.551898
H       1.017884    1.902455   -0.128497
H      -0.700418    1.946906   -0.551197
H      -0.208376    1.802077    1.139493
H      -1.668778   -0.409730    1.484357
H      -1.218518   -3.029294    0.885553
H      -1.790048   -2.405071   -0.684223
H       1.065831   -2.935535   -0.371496
H       1.153612   -0.966465    1.860434
H      -1.422137   -0.976546   -2.248614
H      -0.232313    0.072164   -3.018787
H      -0.060003   -1.680605   -3.136153
H       2.347907   -1.301511   -2.255274
H       2.063358    0.426457   -2.027273
H       2.597897   -0.567297   -0.662268
