18

O      -0.011456    1.452889   -0.058195
C       0.044507    0.027335    0.010062
C       0.646161   -0.539801    1.327748
N      -0.490744   -0.949437    2.179712
C      -1.387768    0.249860    2.427084
C      -2.255385   -0.166904    1.254862
C      -1.499196   -1.477958    1.211035
C      -1.368726   -0.533110    0.058034
O      -2.023635   -0.854021   -1.125568
H       0.883200    1.779690   -0.195408
H       0.557408   -0.370493   -0.877154
H       1.249485   -1.428945    1.113287
H       1.276273    0.189355    1.846518
H      -1.888980    0.144745    3.394117
H      -0.883489    1.218354    2.369988
H      -3.314633    0.002940    1.102216
H      -1.809718   -2.514206    1.169339
H      -2.309830   -0.029430   -1.534062
