20

C       0.220064    1.666554    0.137360
C       0.102765    0.139044    0.107343
C       0.619521   -0.480456   -1.179466
C       0.380099   -1.999031   -1.452650
C      -0.164716   -1.606065   -2.852590
C      -1.689484   -1.499416   -3.076270
C      -1.534904   -0.088620   -2.457783
O      -2.282753    0.751418   -2.043496
N      -0.117638   -0.151876   -2.464671
H       1.252998    1.988950   -0.034093
H      -0.413521    2.112102   -0.633358
H      -0.097199    2.061109    1.107173
H       0.679183   -0.302829    0.931189
H      -0.941534   -0.154083    0.264817
H       1.670927   -0.208519   -1.323311
H       1.264985   -2.638189   -1.440706
H      -0.380266   -2.435523   -0.797218
H       0.446960   -1.897480   -3.708316
H      -2.014452   -1.519507   -4.119595
H      -2.325838   -2.166471   -2.490143
