17

C      -0.048679    1.522683   -0.013907
C      -0.008926    0.007281    0.009089
N      -1.258543   -0.610144   -0.435622
C      -1.537858   -1.483154    0.442549
O      -0.760901   -1.630491    1.554994
C       0.325202   -0.715113    1.361615
C       1.604640   -1.279878    0.730926
N       1.187086   -2.074761   -0.441846
C       1.292122   -0.612516   -0.575611
H       0.898156    1.945540    0.338958
H      -0.228591    1.879826   -1.032535
H      -0.855334    1.896358    0.623511
H      -2.393667   -2.148611    0.417888
H       0.464390   -0.111907    2.260016
H       2.555200   -1.455110    1.219205
H       2.028667   -2.482855   -0.846006
H       1.957104   -0.159372   -1.301398
