17

C      -0.501118    1.363061    0.091684
N      -0.004357   -0.007505    0.106812
C       1.370315   -0.251369   -0.308068
C       0.950508   -0.454204    1.108094
C       1.486169    0.470403    2.213777
C       0.481701    0.481167    3.382113
O      -0.301306    1.371113    3.560469
C       2.790407   -0.001460    2.676218
N       3.804599   -0.395603    3.065905
H       0.276657    2.131463    0.223637
H      -0.978761    1.539520   -0.876297
H      -1.248925    1.492246    0.877895
H       1.539787   -1.103066   -0.960827
H       2.002286    0.613401   -0.511811
H       0.777726   -1.469600    1.461634
H       1.578587    1.496809    1.851018
H       0.514951   -0.421968    4.027062
