16

C       0.085689    1.505148    0.047445
C       0.044914    0.005602   -0.021368
C      -0.079425   -0.703406   -1.153439
C      -0.064166   -2.203732   -1.183976
O       0.512114   -2.773755   -0.029838
C      -0.031833   -2.255109    1.165976
C       0.075934   -0.734117    1.264831
O       0.110211   -0.175167    2.342452
H       1.025152    1.845577    0.495505
H      -0.009631    1.950278   -0.945979
H      -0.714646    1.886232    0.689454
H      -0.201364   -0.199308   -2.110659
H      -1.094133   -2.581685   -1.339215
H       0.530932   -2.558925   -2.032556
H      -1.098424   -2.527396    1.274013
H       0.513661   -2.705575    1.997712
