20

C      -0.125100    1.617224   -0.008478
C       0.028031    0.104515    0.009237
C       1.188142   -0.617715   -0.747965
C       2.158444   -0.153526    0.373148
C       0.869967   -0.626636    1.119338
C       0.610928   -0.664286    2.600368
C       0.912201   -1.868783    0.149497
C      -0.296910   -2.651222   -0.051339
N      -1.246994   -3.295085   -0.196831
H       0.811398    2.160372    0.139853
H      -0.546577    1.942274   -0.965745
H      -0.820539    1.936096    0.775640
H      -0.950028   -0.358284   -0.158504
H       1.372292   -0.640177   -1.822030
H       3.056630   -0.759063    0.524919
H       2.397925    0.907958    0.418726
H       0.615494    0.347455    3.019914
H      -0.363697   -1.114965    2.815182
H       1.376921   -1.247236    3.122749
H       1.766352   -2.536571    0.291669
