21

C      -1.013616    1.048337    0.079649
C       0.088163   -0.021363    0.006042
C       0.731646   -0.076934   -1.374766
C       1.637548    1.020855   -1.888408
C       2.209899   -0.336225   -1.550406
C       3.107712   -0.541188   -0.341391
C       2.517368   -0.095633    0.977137
O       2.006498    1.243178    1.068791
C       1.078952    0.147887    1.140800
H      -0.586091    2.046966   -0.048194
H      -1.758969    0.894637   -0.707116
H      -1.530698    1.019827    1.044970
H      -0.383432   -1.000450    0.182632
H       0.079397   -0.526313   -2.119231
H       1.559688    1.291082   -2.936435
H       1.867812    1.839734   -1.219506
H       2.487106   -0.955103   -2.399096
H       3.338923   -1.610614   -0.239864
H       4.071706   -0.036351   -0.490822
H       3.087817   -0.400477    1.856176
H       0.646929    0.015148    2.134914
