15

C       0.578456    1.307357    0.641941
C       0.075663   -0.058525    0.120737
N       0.086823   -1.017985    1.228148
C      -1.296202    0.079738   -0.388608
N      -2.348634    0.194960   -0.853331
C       1.055581   -0.502288   -1.020813
N       0.685972   -0.230980   -2.293421
O       2.112845   -1.014008   -0.709885
H       1.608195    1.184534    0.986631
H       0.558754    2.065058   -0.145113
H      -0.044641    1.628691    1.477946
H      -0.371960   -1.878539    0.938437
H       1.065901   -1.264828    1.370698
H      -0.241364    0.086797   -2.522080
H       1.302260   -0.514728   -3.038415
