19

C      -0.405725    1.592043   -0.046622
C       0.015052    0.121390   -0.074156
C      -1.219362   -0.793514    0.088310
C       0.848209   -0.301113   -1.300111
O       1.623819    0.808193   -1.721629
C       1.732406   -1.416344   -0.712900
O       1.917933   -1.091740    0.669316
C       0.974966   -0.198047    1.082027
O       0.933499    0.212377    2.204722
H       0.448434    2.251832   -0.198463
H      -1.142722    1.796932   -0.829289
H      -0.852065    1.818869    0.924890
H      -1.936389   -0.603133   -0.716289
H      -0.960128   -1.856957    0.068127
H      -1.709583   -0.588074    1.043484
H       0.219535   -0.676995   -2.118809
H       2.189814    0.526633   -2.447075
H       1.263397   -2.403925   -0.793665
H       2.716792   -1.454353   -1.187889
