18

C      -0.036680    1.527085    0.034070
C       0.031755    0.028073    0.013469
C      -0.838249   -0.870163    0.843229
C       0.655324   -0.958338    1.012625
C       1.250039   -1.790557   -0.111468
O       0.804311   -3.117335   -0.122176
C       0.621280   -0.774346   -1.165178
C      -0.286549   -1.328898   -2.155873
N      -0.995642   -1.803178   -2.937033
H       0.918349    1.978193   -0.258855
H      -0.805752    1.896429   -0.654213
H      -0.286951    1.891340    1.035337
H      -1.358504   -0.369902    1.653573
H      -1.385497   -1.695969    0.399896
H       1.146128   -0.754265    1.955956
H       2.344627   -1.727566   -0.151476
H       1.099597   -3.542752   -0.934783
H       1.411521   -0.217776   -1.677156
