19

C      -0.015849    1.583667   -0.006096
C      -0.003746    0.053051    0.010209
C       0.762939   -0.511415    1.210342
C       0.784603   -2.043695    1.249600
O       1.488779   -2.491264    0.065517
C       1.227840   -3.740588   -0.370670
O       1.773499   -4.214532   -1.320348
C       1.428314   -2.564793    2.453478
C       1.955546   -2.984941    3.447720
H       1.001406    1.986353   -0.059840
H      -0.569724    1.964256   -0.869328
H      -0.485283    1.988843    0.897193
H      -1.035680   -0.322939    0.030581
H       0.446265   -0.325761   -0.913198
H       1.799927   -0.157569    1.204860
H       0.314392   -0.163961    2.148066
H      -0.247473   -2.419630    1.200348
H       0.459635   -4.259886    0.233667
H       2.422671   -3.362367    4.324178
