15

N      -0.136022    1.225951   -0.572979
C      -0.054297    0.067506   -0.107845
O       1.013315   -0.665797    0.379830
C       0.191667   -1.850375    0.581260
C       0.142041   -2.314330    2.017573
O       0.629562   -1.726160    2.943385
C      -1.028086   -1.049919    0.080852
C      -2.447812   -0.962636    0.490606
N      -2.064570   -1.486279   -0.828742
H       0.761143    1.711557   -0.573281
H       0.489548   -2.666784   -0.085840
H      -0.419243   -3.268019    2.148436
H      -2.862923   -1.700352    1.171045
H      -2.872300    0.034565    0.564208
H      -2.195053   -0.782224   -1.553238
