23

C      -0.123870    1.566058   -0.084868
C       0.073397    0.047179   -0.079457
C       0.729195   -0.531395    1.197395
C       0.823409   -2.059460    1.087692
C       2.138814    0.083937    1.396774
C       2.896540   -0.486523    2.503496
C       3.541861   -0.951054    3.404912
O       0.018878   -0.114213    2.369010
C      -1.254619   -0.671668    2.604195
H       0.826732    2.105380   -0.139706
H      -0.720151    1.872183   -0.949697
H      -0.640947    1.893779    0.820962
H      -0.898468   -0.442607   -0.212338
H       0.675506   -0.259722   -0.943428
H       1.508153   -2.334712    0.279548
H       1.205309   -2.488267    2.016951
H      -0.147569   -2.508622    0.861152
H       2.707199   -0.030459    0.465513
H       2.016796    1.158377    1.566827
H       4.106587   -1.355803    4.207519
H      -1.960865   -0.491410    1.780802
H      -1.213621   -1.752415    2.794863
H      -1.642661   -0.179732    3.499942
