15

N      -0.847923    0.729293    0.286208
C       0.044906   -0.356535   -0.109312
C       0.978999   -0.065560   -1.311220
C       0.212486    0.267749   -2.506332
N      -0.435820    0.539106   -3.424218
C       0.907672   -0.846521    1.073931
N       0.370737   -0.584932    2.287976
O       1.957678   -1.435890    0.894700
H      -0.330770    1.598903    0.387395
H      -1.549075    0.887973   -0.430822
H      -0.591970   -1.207455   -0.382019
H       1.649243    0.767787   -1.070058
H       1.614788   -0.936114   -1.490832
H      -0.502219   -0.085406    2.344091
H       0.841903   -0.914770    3.113442
