19

O      -0.545801    1.163347    0.053047
C      -0.142192   -0.203350    0.011656
C       0.703036   -0.432868   -1.237303
C       0.404737    0.243639   -2.502221
O       1.466947    0.708720   -1.648679
C       0.594876   -0.638822    1.271632
C       1.511714    0.320166    2.017799
C       0.198631   -0.104548    2.626391
O      -0.863916    0.778459    2.795215
H       0.206870    1.663024   -0.300465
H      -1.065265   -0.791348   -0.077762
H       1.250698   -1.374205   -1.265956
H       0.733060   -0.197390   -3.440813
H      -0.456900    0.904022   -2.561430
H       0.904867   -1.681028    1.233476
H       2.443946   -0.057573    2.423649
H       1.564594    1.340797    1.653213
H       0.239099   -0.798639    3.460391
H      -0.969314    1.258401    1.960848
