18

C       0.007485    1.582814    0.280442
O       0.048120    0.189107   -0.006560
C       0.604492   -0.585335    0.940739
N       0.688866   -1.832473    0.782615
C       1.294750   -2.604081    1.833264
C       0.456180   -3.830012    2.321330
C       1.712511   -4.693732    2.140796
O       2.037291   -5.779443    2.524118
C       2.428980   -3.575562    1.370515
H       1.015222    1.995157    0.410742
H      -0.464408    2.058567   -0.579674
H      -0.588364    1.790435    1.177339
H       0.962443   -0.040497    1.828872
H       1.626100   -1.990200    2.685049
H       0.009207   -3.795978    3.317609
H      -0.314037   -4.090730    1.587753
H       2.379756   -3.743293    0.289407
H       3.459700   -3.350905    1.654518
