20

C       0.340374    1.146209    0.741784
C       0.064066   -0.250161    0.153806
C      -1.425385   -0.608898    0.313620
N      -2.256333   -0.105458   -0.638761
O      -1.819624   -1.260615    1.263618
C       0.591277   -0.387006   -1.265166
O       0.056215    0.626989   -2.097514
C       2.010081   -0.832503   -1.488499
C       0.847565   -1.750470   -1.841488
H       1.414708    1.354671    0.741648
H      -0.155917    1.924273    0.157469
H      -0.022024    1.197866    1.771723
H       0.580604   -0.993927    0.766136
H      -1.882005    0.354920   -1.453940
H      -3.235618   -0.330075   -0.577992
H       0.328565    0.461203   -3.005189
H       2.556104   -0.376563   -2.308757
H       2.625434   -1.077433   -0.629426
H       0.661949   -2.620638   -1.221036
H       0.632508   -1.906487   -2.894694
