17

C      -0.012227    1.522419    0.070962
C      -0.007712    0.030763   -0.070095
C      -0.033902   -0.654140   -1.244872
C      -0.034037   -2.077939   -1.247218
C      -0.010076   -2.789734   -0.077808
N      -0.064781   -4.163292    0.045823
C       0.039778   -2.083350    1.204111
O       0.099379   -2.648001    2.293947
N       0.026682   -0.702732    1.097286
H       0.879065    1.881208    0.601232
H      -0.031856    1.995828   -0.912320
H      -0.887666    1.872610    0.632249
H      -0.059120   -0.109049   -2.179652
H      -0.059762   -2.604813   -2.196777
H       0.315778   -4.708664   -0.711164
H       0.200163   -4.473707    0.971878
H       0.065075   -0.225253    1.987824
