21

C       0.029469    1.465436    0.081139
C       1.338093    0.752450    0.208077
O       1.448809    0.093321    1.471043
C       0.308450   -0.763072    1.135062
C       0.108354   -0.024379   -0.190103
C       0.700730   -2.220731    1.046201
C       1.947607   -2.647963    0.220470
C       2.287389   -3.669299    1.339180
C       1.356603   -2.876743    2.295455
H      -0.466348    1.839857    0.972880
H      -0.083712    2.083015   -0.804914
H       2.252951    1.010665   -0.312853
H      -0.495216   -0.635887    1.874505
H      -0.173007   -0.478737   -1.130707
H      -0.183466   -2.789924    0.732114
H       1.784721   -3.029319   -0.790449
H       2.682152   -1.839905    0.184570
H       1.888080   -4.663342    1.116897
H       3.336181   -3.773624    1.626497
H       1.912982   -2.131056    2.869834
H       0.711490   -3.441182    2.973141
