20

C       0.781725    1.542504   -0.217512
C       0.149473    0.170932    0.037050
C       0.316956   -0.840165   -1.135151
C       1.246553   -1.939356   -0.634111
C       2.620762   -1.554074   -0.127216
C       1.465894   -1.711558    0.834124
N       0.747380   -0.519621    1.196963
C       0.500808   -0.132110    2.471345
O      -0.178108    0.827411    2.786537
H       1.847213    1.460385   -0.454859
H       0.283074    2.029129   -1.062305
H       0.664372    2.174272    0.665125
H      -0.908966    0.331786    0.266110
H      -0.650140   -1.277964   -1.399354
H       0.700696   -0.340636   -2.030217
H       1.109171   -2.941181   -1.023464
H       3.378933   -2.330172   -0.123394
H       2.998777   -0.555939   -0.318909
H       1.462376   -2.504997    1.572351
H       0.986017   -0.798609    3.212466
