15

C      -0.365439    1.263138   -0.078464
C      -0.168839   -0.175422    0.012205
C      -0.012212   -1.367008    0.096342
C       0.193581   -2.787627    0.167441
C      -0.531542   -3.617741    1.206305
N      -0.886429   -3.713623   -0.185192
C      -2.121440   -3.325656   -0.688840
O      -3.180770   -3.582496   -0.174798
H       0.401646    1.727531   -0.707395
H      -1.341889    1.499020   -0.515043
H      -0.319260    1.734530    0.909220
H       1.178082   -3.131251   -0.143183
H      -0.028414   -4.479860    1.634827
H      -1.229880   -3.102601    1.859406
H      -2.020916   -2.813507   -1.663163
