20

O       0.064140    1.495809    0.194114
C       0.101587    0.084225    0.038298
C      -1.337183   -0.419237    0.039164
C      -1.421590   -1.931193   -0.078562
C      -2.805847   -2.618555   -0.330025
O      -3.936365   -1.819318   -0.606169
C      -2.182744   -3.224215   -1.574942
C      -1.657576   -2.167719   -2.458949
N      -0.827154   -2.579974   -1.311987
H       0.965032    1.826790    0.136564
H       0.593324   -0.204989   -0.902079
H       0.663239   -0.393001    0.858323
H      -1.815087   -0.109584    0.977781
H      -1.890853    0.077238   -0.762744
H      -0.923422   -2.393493    0.780357
H      -3.031361   -3.369327    0.437179
H      -4.286038   -1.489533    0.227878
H      -2.273441   -4.259966   -1.883430
H      -1.234302   -2.484137   -3.407106
H      -2.133039   -1.192621   -2.476596
