16

O       0.212167    1.379492    0.224326
C       0.190784   -0.017708    0.110074
C      -1.195716   -0.698044    0.281068
C      -2.402328    0.213754    0.425707
C      -3.706374   -0.507178    0.144180
O      -4.638602   -0.540509    0.905119
O      -1.073843   -1.249939   -1.085558
C       0.104869   -0.574508   -1.298509
N       0.812772   -0.419610   -2.319923
H       0.729558    1.719149   -0.515280
H       0.973798   -0.485947    0.719871
H      -1.215179   -1.521718    0.999053
H      -2.435995    0.630301    1.436270
H      -2.298339    1.045092   -0.282192
H      -3.749076   -1.013105   -0.844414
H       0.426993   -0.895244   -3.136971
