21

C      -0.196969    1.634336   -0.060358
C       0.041400    0.130441   -0.027554
C       1.113999   -0.573212   -0.916153
C       2.423503    0.120243   -0.499000
C       2.340498   -0.399771    0.949530
O       2.481419   -1.834882    0.723684
C       1.147896   -1.746231    0.198384
C       0.432151   -3.046384   -0.003736
C       0.777682   -0.565819    1.130904
H       0.704787    2.212644    0.158544
H      -0.568693    1.954013   -1.040430
H      -0.950117    1.915790    0.683966
H      -0.918721   -0.382632   -0.163762
H       0.936227   -0.775286   -1.972046
H       3.313505   -0.281614   -0.987139
H       2.404925    1.205457   -0.614297
H       3.002582   -0.008845    1.720537
H       0.403159   -3.622438    0.925965
H      -0.594744   -2.877538   -0.341888
H       0.943733   -3.647382   -0.763363
H       0.385672   -0.691631    2.139894
