16

C       0.026606    1.352737   -0.081351
N      -0.156831   -0.072325    0.110951
C       0.575855   -0.702251    1.097832
C       1.239314   -0.171046    2.164998
O       1.784740   -1.177233    2.930569
C       1.478351   -2.342237    2.339772
C       0.738701   -2.140596    1.206611
C       0.232861   -3.096222    0.300469
C      -0.212622   -3.869498   -0.509872
H       1.075824    1.637323   -0.262198
H      -0.578482    1.683612   -0.928138
H      -0.319562    1.894112    0.806764
H      -0.220714   -0.613273   -0.739321
H       1.403575    0.830070    2.520295
H       1.842120   -3.238521    2.814154
H      -0.605382   -4.567740   -1.206430
