20

O       0.771464    0.036063    1.273890
C       0.244509   -0.086718   -0.043349
C      -1.185906   -0.574884   -0.028505
C      -1.943111   -1.190294   -1.184599
C      -1.204343   -1.766132   -2.387735
C      -0.191325   -2.801168   -1.830546
C      -0.655274   -3.137881   -0.387314
C      -1.615740   -2.029795    0.033657
H       0.644944   -0.813396    1.709155
H       0.287963    0.922995   -0.467196
H       0.890339   -0.720688   -0.663613
H      -1.805245    0.074410    0.587646
H      -2.951358   -0.826502   -1.353622
H      -1.937256   -2.259416   -3.036073
H      -0.711911   -1.002339   -2.999454
H      -0.148287   -3.696986   -2.456477
H       0.820170   -2.387652   -1.825028
H      -1.197962   -4.089584   -0.370685
H       0.196394   -3.257815    0.292936
H      -2.385332   -2.287195    0.754043
