20

O      -0.008295    1.459884    0.091021
C       0.023965    0.048981   -0.057695
C      -1.403962   -0.468904    0.070043
C      -1.493432   -1.986105   -0.042545
C      -2.829951   -2.708575   -0.062024
C      -3.302776   -2.836299   -1.475799
C      -2.281134   -2.202774   -2.400723
C      -1.262170   -2.740701   -1.378173
N      -2.303199   -3.820363   -0.927283
H       0.889571    1.793053    0.004633
H       0.440566   -0.238040   -1.037461
H       0.657986   -0.420088    0.712926
H      -1.800166   -0.151907    1.042673
H      -2.024748    0.018973   -0.688600
H      -0.865205   -2.459669    0.722047
H      -3.483899   -2.918245    0.777820
H      -4.315869   -3.143862   -1.710206
H      -2.216515   -2.760614   -3.338512
H      -2.318128   -1.129782   -2.613134
H      -0.266485   -3.056390   -1.684292
