17

C      -0.114209    1.519277   -0.068868
N       0.058571    0.080893    0.027846
C       0.720269   -0.549893   -1.150611
C       1.388399   -1.873362   -0.646371
C       1.517472   -1.514570    0.797052
C       0.766658   -0.437664    1.124210
C       0.926166   -0.332984    2.526583
N       1.717491   -1.288791    2.983797
O       2.084828   -2.064125    1.874480
H       0.840136    2.063049   -0.185811
H      -0.749702    1.752707   -0.928354
H      -0.616851    1.890988    0.828323
H      -0.004179   -0.718172   -1.951535
H       1.504966    0.122564   -1.533830
H       0.729878   -2.739987   -0.788095
H       2.327773   -2.081687   -1.164840
H       0.526426    0.380945    3.232066
