20

C      -0.191900    1.498669    0.200375
C      -0.113829   -0.011876   -0.030763
O      -1.397451   -0.594385   -0.179745
C       0.811632   -0.414006   -1.226615
C       1.079900   -1.899369   -1.086629
O       0.746625   -2.768645   -1.852630
C       0.234229    0.058836   -2.548912
C       0.435881   -0.584497   -3.869002
N      -0.885957   -0.646230   -3.212116
H       0.798773    1.923752    0.391911
H      -0.625183    2.017311   -0.660739
H      -0.828982    1.697875    1.065892
H       0.297355   -0.472314    0.876948
H      -1.788865   -0.252022   -0.993445
H       1.779676    0.082214   -1.055069
H       1.623665   -2.155896   -0.147967
H       0.104008    1.139574   -2.573028
H       0.480875    0.043131   -4.754563
H       1.008203   -1.502889   -3.919281
H      -0.960143   -1.575241   -2.802076
