19

C      -0.284576    1.543572    0.226005
C       0.169701    0.116509   -0.104110
C       0.866588   -0.548096    1.068070
C       0.087613   -1.287122    2.130013
C       1.025565   -2.044577    1.221280
C       0.494628   -3.032932    0.217107
O       0.309377   -4.275818    0.886040
H       0.567514    2.174572    0.502206
H      -0.781939    2.011332   -0.629473
H      -0.984079    1.546749    1.068379
H      -0.700373   -0.475094   -0.410418
H       0.844364    0.140252   -0.970360
H       1.715241    0.026561    1.434500
H       0.356093   -1.161955    3.173066
H      -0.976631   -1.424102    1.960113
H       1.959565   -2.372619    1.669889
H      -0.453059   -2.674322   -0.212292
H       1.209094   -3.140379   -0.615622
H       0.046638   -4.928696    0.230358
