19

C       0.011714    1.564894    0.003006
C      -0.025994    0.033849   -0.019545
O      -1.382262   -0.420167   -0.018649
C       0.715717   -0.519434   -1.256497
C       0.938712   -2.004454   -1.202043
C       0.889979   -2.717041   -0.071719
C       0.630118   -2.088424    1.240228
O       0.517562   -2.742553    2.256464
C       0.579164   -0.563197    1.256697
H       1.036315    1.943429    0.071896
H      -0.433899    1.975589   -0.911494
H      -0.558171    1.940220    0.857367
H      -1.823109   -0.052929   -0.792319
H       0.150178   -0.260988   -2.162267
H       1.685220   -0.011333   -1.367138
H       1.150069   -2.502708   -2.145873
H       1.035991   -3.792392   -0.060630
H       1.609550   -0.201837    1.372772
H       0.014161   -0.245694    2.136150
