15

C       0.040508    1.334407    0.006620
O       0.007935   -0.084704    0.002932
C      -1.221502   -0.633160    0.010474
C      -2.453203   -0.049280    0.021337
O      -3.418618   -1.030888    0.025681
C      -2.795282   -2.215899    0.017587
C      -1.435182   -2.060826    0.007880
C      -0.431354   -3.124125   -0.002717
O      -0.692657   -4.308130   -0.004250
H       1.091854    1.623337   -0.000476
H      -0.458870    1.739599   -0.882946
H      -0.445425    1.734648    0.905824
H      -2.811720    0.963582    0.026949
H      -3.416714   -3.095972    0.019661
H       0.618854   -2.765991   -0.009424
