20

C       0.067592    1.523712   -0.161349
C       0.007242    0.009110    0.042539
C      -1.407561   -0.548823    0.030853
O      -1.341648   -1.930933    0.158158
C      -2.540845   -2.601360   -0.197192
C      -3.603843   -2.518169    0.893173
N      -4.123661   -1.209016    1.242080
C      -3.430390   -0.161842    1.342558
O      -2.114055    0.096148    1.099492
H       1.104593    1.870984   -0.160848
H      -0.379373    1.815111   -1.118522
H      -0.469602    2.046696    0.633246
H       0.561241   -0.510897   -0.745402
H       0.464235   -0.273519    0.997005
H      -1.938300   -0.289316   -0.901961
H      -2.931713   -2.193467   -1.142554
H      -2.270666   -3.649139   -0.362329
H      -4.450115   -3.147100    0.590446
H      -3.192478   -2.968016    1.807940
H      -3.896598    0.741244    1.738404
