19

C      -0.011504    1.583381   -0.083907
C      -0.200900    0.074757    0.101859
C       0.664559   -0.530522    1.211169
C       0.345097    0.011688    2.597829
C       0.827807   -2.072484    1.123310
C       2.292739   -1.763493    0.765165
O       2.083456   -0.345675    0.905476
H       1.049478    1.815743   -0.213289
H      -0.548645    1.935325   -0.969730
H      -0.382879    2.153634    0.772940
H      -1.253259   -0.159458    0.311426
H       0.051319   -0.435717   -0.835420
H      -0.702868   -0.177865    2.856139
H       0.978713   -0.467172    3.349707
H       0.522085    1.089689    2.647419
H       0.681681   -2.602806    2.066224
H       0.238630   -2.558495    0.343235
H       3.047602   -2.137446    1.467682
H       2.599122   -2.035543   -0.252879
