27

C       2.154015   -0.239424    0.842562
C       0.950593   -0.925273    0.179583
C       1.061362   -1.053258   -1.336174
C       1.155401    0.269736   -2.094579
C      -0.068871    1.180627   -1.938359
C       1.827929   -2.218691   -1.945366
C       2.560508   -3.274252   -1.141575
C       0.314755   -2.166114   -2.057774
C      -0.603327   -3.161919   -1.377940
H       3.085509   -0.767597    0.614738
H       2.270707    0.795642    0.506872
H       2.037105   -0.219265    1.930832
H       0.819806   -1.911975    0.631122
H       0.037394   -0.369816    0.429322
H       2.057126    0.814627   -1.786339
H       1.294885    0.046359   -3.159254
H      -0.986220    0.661240   -2.236316
H      -0.199909    1.518146   -0.905326
H       0.028057    2.074126   -2.563370
H       2.354679   -1.968929   -2.864848
H       2.063404   -3.521678   -0.200930
H       2.648953   -4.203991   -1.715574
H       3.576304   -2.944436   -0.896258
H      -0.050964   -1.880649   -3.042928
H      -0.227475   -3.502377   -0.410727
H      -1.596050   -2.729322   -1.208881
H      -0.736066   -4.051770   -2.003970
