19

O       0.347403    1.096869   -0.357235
C       0.145585   -0.271854   -0.133753
C       0.234105   -0.806802    1.298422
C       1.352049   -1.421769    2.060190
C       0.749261   -0.094112    2.507145
O      -1.075793   -1.384182    1.240801
C      -1.288486   -0.802650   -0.051136
C      -2.548130   -0.085119   -0.415517
C      -2.180829   -1.412133   -1.071199
H      -0.206535    1.577320    0.269179
H       0.781063   -0.795595   -0.852319
H       1.118084   -2.297440    2.656153
H       2.343132   -1.421941    1.617823
H       1.326574    0.812715    2.355973
H       0.125204   -0.104034    3.394115
H      -3.353792   -0.094548    0.310487
H      -2.464592    0.823055   -1.004346
H      -1.860642   -1.410473   -2.108220
H      -2.747066   -2.286899   -0.769749
