20

C      -0.451877    1.480467   -0.111990
C       0.083356    0.052332    0.052599
C       0.824526   -0.441279   -1.169313
C       0.102077   -0.942789   -2.385911
N       0.805342   -1.881703   -1.525761
C       2.149441   -2.248266   -2.049702
C       2.942478   -0.954408   -2.305244
C       2.193023    0.101436   -1.477833
O       2.644879    1.147793   -1.083078
H       0.367943    2.179345   -0.291595
H      -1.148372    1.545974   -0.954944
H      -0.985503    1.798110    0.788703
H       0.756979    0.008993    0.916580
H      -0.735467   -0.646011    0.255305
H      -0.982253   -0.999309   -2.341380
H       0.502813   -0.719978   -3.372592
H       2.637777   -2.853536   -1.280370
H       2.029615   -2.873557   -2.938745
H       3.982496   -1.007360   -1.978827
H       2.954966   -0.645643   -3.356435
