18

C      -0.086145    1.515072   -0.022976
C      -0.016383    0.009827   -0.003667
C       0.031351   -0.735420   -1.173810
N       0.093950   -2.073930   -1.207403
C       0.111032   -2.718651   -0.054098
O       0.174366   -4.071180   -0.095256
C       0.068089   -2.098675    1.209177
C       0.092090   -2.918046    2.469517
C       0.003886   -0.714924    1.197502
H       0.769428    1.965929    0.492900
H      -0.092495    1.894896   -1.048428
H      -0.990995    1.884089    0.473488
H       0.018994   -0.237354   -2.140946
H       0.195632   -4.302905   -1.034145
H       0.998199   -3.530949    2.526684
H       0.052472   -2.277149    3.354094
H      -0.754376   -3.612330    2.507159
H      -0.031478   -0.182138    2.145071
