19

O      -0.037798    1.367486   -0.069677
C       0.038130   -0.023900   -0.039054
C      -0.327773   -0.787214    1.227940
C      -1.229997   -0.814322    0.012110
O      -2.386317    0.003782    0.036193
C      -3.539759   -0.841669   -0.025513
C      -3.096767   -2.077793   -0.786477
C      -2.315611   -1.840888   -2.052469
C      -1.582636   -2.055219   -0.749247
H      -0.974363    1.590083   -0.145257
H       0.860767   -0.406684   -0.637761
H       0.239792   -1.675878    1.487445
H      -0.669583   -0.187424    2.064775
H      -3.875148   -1.115722    0.985950
H      -4.332988   -0.266430   -0.513633
H      -3.657853   -2.995553   -0.657822
H      -2.287442   -2.647744   -2.776016
H      -2.313508   -0.843797   -2.481684
H      -0.998060   -2.952575   -0.590188
