19

C      -0.069591    1.522212   -0.090466
C      -0.008773    0.003308    0.093725
C      -1.388379   -0.642733    0.078589
O      -2.061370   -0.406903   -1.203418
C      -2.350578   -1.731480   -1.667867
C      -2.877580   -2.448349   -0.392332
C      -1.418718   -2.182766    0.123575
C      -1.035801   -2.483330   -1.348622
O      -0.216571   -3.132147   -1.922557
H       0.933934    1.957025   -0.093182
H      -0.555841    1.773247   -1.036678
H      -0.637911    1.997600    0.716887
H       0.606447   -0.446435   -0.694647
H       0.473089   -0.243146    1.048986
H      -2.012008   -0.206666    0.871198
H      -2.853466   -1.708850   -2.630888
H      -3.680638   -1.929262    0.134249
H      -3.105713   -3.505959   -0.536459
H      -0.972969   -2.687910    0.976701
