17

O       0.082421    1.482267   -0.025808
C       0.105300    0.074062    0.033587
C      -1.305346   -0.523847    0.034165
C      -2.149478   -0.027961    1.213846
C      -3.570502   -0.551153    1.197876
O      -4.045071   -1.233480    2.069511
O      -1.947220   -0.099457   -1.190608
C      -2.125617   -1.003010   -2.180647
O      -2.570984   -0.705689   -3.245640
H      -0.367408    1.724981   -0.843823
H       0.670875   -0.361452   -0.805048
H       0.618515   -0.198683    0.961307
H      -1.237171   -1.620169    0.045788
H      -1.678854   -0.333872    2.152153
H      -2.166582    1.067716    1.171577
H      -4.168293   -0.257178    0.308540
H      -1.825395   -2.026884   -1.886074
