20

C       0.167897    1.482516    0.064159
C       0.016498   -0.039815    0.030705
C      -1.438183   -0.508787   -0.021319
C      -1.551931   -2.028848   -0.154580
O      -2.064057   -0.039167    1.173566
C      -3.465887   -0.020926    1.161417
C      -3.938911    0.751941    2.381746
O      -5.092637    0.849559    2.704395
H       1.221327    1.771453    0.124125
H      -0.252168    1.942401   -0.837635
H      -0.351886    1.902451    0.928600
H       0.538790   -0.452415   -0.840545
H       0.485537   -0.483839    0.917588
H      -1.936513   -0.032707   -0.884221
H      -1.073201   -2.521577    0.697675
H      -2.594574   -2.356736   -0.198836
H      -1.060525   -2.368288   -1.071617
H      -3.862021    0.481946    0.261435
H      -3.915359   -1.025579    1.190439
H      -3.111986    1.230982    2.951306
