14

C      -0.058125    1.456681   -0.031655
N      -0.015638    0.009660    0.040205
N      -0.045082   -0.714987   -1.075212
N       0.004272   -1.994674   -0.764811
C       0.066349   -2.088758    0.577642
O       0.126908   -3.242448    1.224435
C       0.055715   -0.808367    1.138455
C       0.109614   -0.514652    2.539835
O       0.171325   -1.418213    3.367827
H       0.844931    1.890194    0.407125
H      -0.115934    1.721231   -1.087117
H      -0.937126    1.841877    0.492649
H       0.162703   -3.014546    2.175307
H       0.094234    0.545150    2.858031
