19

C      -0.117826    1.547263    0.122300
C       0.038196    0.021495    0.120782
C       0.664069   -0.507257   -1.166256
O       1.966951    0.028415   -1.364439
C       0.706693   -2.025211   -1.420233
C      -0.660724   -2.587161   -1.537708
C      -0.086763   -1.878930   -2.757238
C      -0.083704   -0.405458   -2.542076
O      -0.273045    0.547208   -3.251405
H       0.857646    2.037915    0.052915
H      -0.728341    1.885237   -0.720666
H      -0.593570    1.887887    1.046186
H       0.677946   -0.289822    0.956360
H      -0.938684   -0.448647    0.278040
H       1.863109    0.873994   -1.816740
H       1.595585   -2.622747   -1.269763
H      -0.723354   -3.663989   -1.656510
H      -1.498810   -2.158831   -0.997521
H       0.030474   -2.389498   -3.704821
