21

C      -0.056120    1.527718    0.049538
C       0.031360    0.018972    0.042686
C       0.925435   -0.786330   -0.972432
C       0.745125   -1.933600    0.090398
C       1.650661   -3.141349    0.163628
C       0.771605   -0.790791    1.146335
C      -0.779057   -2.164141   -0.080485
O      -1.617247   -1.668145    0.978032
C      -1.279591   -0.794879   -0.113950
H       0.937845    1.983572    0.104602
H      -0.543566    1.902855   -0.858236
H      -0.635881    1.884481    0.908184
H       0.528477   -0.956043   -1.979346
H       1.952478   -0.412321   -1.030922
H       2.703390   -2.846247    0.222612
H       1.423952   -3.750376    1.045877
H       1.534170   -3.781015   -0.719345
H       1.786704   -0.415989    1.299058
H       0.264703   -0.952874    2.096439
H      -1.172245   -2.997612   -0.654656
H      -2.108327   -0.436861   -0.717242
