21

C      -0.204058    1.648554    0.027883
C      -0.132727    0.116421    0.019465
C       0.533784   -0.403484    1.310536
C      -1.520776   -0.500611   -0.141113
N      -2.534856    0.200657    0.176880
N      -1.615044   -1.840093   -0.595545
C      -2.936189   -2.461156   -0.667241
C      -0.538706   -2.615179   -0.997221
O      -0.627970   -3.756268   -1.390437
H       0.807264    2.060919    0.101526
H      -0.668920    2.028714   -0.884921
H      -0.795152    2.008376    0.871688
H       0.488193   -0.173464   -0.835282
H      -0.059541   -0.108853    2.181669
H       0.633438   -1.492713    1.326098
H       1.533919    0.026741    1.418425
H      -3.415308   -0.298437    0.072713
H      -3.580013   -1.926382   -1.372846
H      -2.795141   -3.483690   -1.011593
H      -3.412684   -2.468798    0.317959
H       0.424408   -2.095672   -0.928762
