21

C      -0.375236    1.291909   -0.052443
O       0.267955    0.038421    0.094308
C       0.763941   -0.500523   -1.097320
C      -0.209670   -1.121026   -2.062523
C       0.686539   -1.999148   -1.203436
C       1.835613   -2.774642   -1.843280
C       3.055235   -1.876274   -2.073938
O       2.680893   -0.611470   -2.601458
C       2.017473    0.177932   -1.632636
H       0.324120    2.090502   -0.336892
H      -1.178162    1.249969   -0.801608
H      -0.807524    1.540681    0.919677
H      -1.263079   -1.080948   -1.808882
H       0.017716   -1.058511   -3.122283
H       0.187959   -2.477952   -0.367457
H       2.128601   -3.612768   -1.201679
H       1.509437   -3.206399   -2.796570
H       3.602788   -1.731093   -1.128259
H       3.743817   -2.320644   -2.798280
H       1.784974    1.127882   -2.125229
H       2.683354    0.387347   -0.777821
