18

C      -0.138383    1.578312    0.052161
C       0.002043    0.052000    0.011850
N       0.708831   -0.412187   -1.192017
C       2.065628   -0.397417   -1.231833
C       2.866192   -0.260192   -0.138289
C       2.260825   -0.163204    1.165718
O       2.822553    0.128264    2.214611
C       0.762092   -0.518172    1.222328
O       0.209865   -0.076144    2.427451
H       0.838955    2.067012   -0.003112
H      -0.749725    1.933543   -0.783265
H      -0.617297    1.871667    0.988282
H      -0.995956   -0.398124   -0.000702
H       0.225246   -0.305433   -2.069326
H       2.493940   -0.509243   -2.224146
H       3.942158   -0.217656   -0.240158
H       0.712047   -1.620725    1.145353
H       0.988607    0.151521    2.967942
