18

C      -0.045615    1.405183    0.108773
N      -0.011616   -0.026497   -0.112804
C      -1.203587   -0.718957   -0.093097
C      -2.488622   -0.282785   -0.213647
O      -3.301488   -1.401479   -0.195268
C      -2.456408   -2.442162   -0.045610
C      -3.052951   -3.808065    0.090634
N      -3.742990   -4.062915    1.363463
N      -1.203993   -2.103143    0.023759
H       0.974545    1.794609    0.111032
H      -0.585501    1.893799   -0.710526
H      -0.536360    1.690789    1.053407
H       0.725257   -0.523613    0.365507
H      -2.973783    0.667649   -0.334498
H      -3.769085   -3.974316   -0.721316
H      -2.244528   -4.533556   -0.026148
H      -3.093682   -3.909828    2.130704
H      -4.484373   -3.378134    1.484160
