23

C       0.007650    1.550958    0.159895
C      -0.091321    0.024502    0.053943
C      -1.522543   -0.533237   -0.082984
C      -2.161490   -0.103553   -1.405462
O      -3.485911   -0.617734   -1.461266
C      -1.521978   -2.055583    0.053845
C      -1.085626   -2.683315    1.398226
O      -2.260862   -3.512421    1.443960
C      -2.844624   -2.807496    0.324398
H       1.041253    1.860135    0.344126
H      -0.323466    2.053620   -0.753834
H      -0.603940    1.929063    0.986616
H       0.513820   -0.327185   -0.793260
H       0.363668   -0.416798    0.948735
H      -2.136120   -0.117191    0.729753
H      -2.169504    0.993054   -1.483536
H      -1.552857   -0.488593   -2.241555
H      -3.877959   -0.355875   -2.299010
H      -0.975189   -2.498148   -0.786366
H      -0.161368   -3.273126    1.405147
H      -1.055036   -1.970659    2.237207
H      -3.673042   -2.160616    0.634271
H      -3.198790   -3.490212   -0.454533
