22

C       0.647844   -0.504232    1.545344
C       0.054128   -0.173394    0.170560
C      -1.383048   -0.657862   -0.048128
C      -2.391835   -0.054977    0.933531
O      -2.553933    1.347758    0.785692
C      -1.923150   -0.554994   -1.528918
C      -2.124767   -2.071388   -1.523775
N      -0.784136   -2.667470   -1.296145
C      -1.584524   -2.188424   -0.143450
H       1.696725   -0.196452    1.596927
H       0.120951   -0.001984    2.363890
H       0.611818   -1.581438    1.741283
H       0.099498    0.910992   -0.006166
H       0.673978   -0.630026   -0.606539
H      -3.381846   -0.486406    0.747986
H      -2.118579   -0.316909    1.967623
H      -1.718073    1.767837    1.009952
H      -2.845428    0.025499   -1.586630
H      -1.214233   -0.190191   -2.276492
H      -2.902686   -2.643738   -2.014206
H      -0.895907   -3.680663   -1.331892
H      -1.858346   -2.865235    0.658466
