18

O       0.111290    1.445883    0.012624
C       0.083626    0.022219   -0.018807
C       0.197002   -0.589698    1.428656
C      -1.379159   -0.611087    1.494590
C      -1.328254   -0.498259   -0.011697
C      -1.686875   -1.052159   -1.163423
C      -0.568115   -0.871621   -2.188839
C       0.688707   -0.574040   -1.307205
H       1.013573    1.711497    0.221420
H       0.618659   -1.597574    1.428022
H       0.708415    0.029046    2.171253
H      -1.866130   -1.488929    1.924804
H      -1.761677    0.289452    1.983059
H      -2.582297   -1.629213   -1.366974
H      -0.432709   -1.772940   -2.796529
H      -0.777469   -0.053449   -2.890430
H       1.398005    0.105975   -1.788089
H       1.210444   -1.512527   -1.092423
