19

N       0.107516    1.348294   -0.271257
C       0.035692    0.089532   -0.212889
O       1.108931   -0.755094   -0.230693
C       0.679948   -2.123323   -0.118994
C      -0.797849   -2.122212   -0.531253
C      -1.254862   -0.711716   -0.107376
C      -1.815097   -0.659828    1.303431
C      -2.720243    0.436955    1.707923
N      -3.240159   -0.936996    1.546067
H       1.081997    1.651809   -0.317279
H       1.319434   -2.728200   -0.765598
H       0.819634   -2.454848    0.917241
H      -0.883953   -2.239710   -1.615339
H      -1.368402   -2.921347   -0.053309
H      -1.993662   -0.286579   -0.792036
H      -1.163954   -1.090072    2.063488
H      -2.709773    0.804503    2.729499
H      -2.965676    1.185273    0.959764
H      -3.732506   -1.011105    0.658008
