14

N      -0.034073    1.373610    0.137888
C       0.007925    0.002499    0.046593
N      -1.156473   -0.645381    0.039638
C      -1.103725   -1.988366    0.007415
C       0.114855   -2.674156   -0.028156
N       1.280056   -2.020045   -0.031480
C       1.234299   -0.698786    0.007860
C      -2.335480   -2.711272    0.003851
C      -3.353757   -3.352509   -0.000570
H       0.762582    1.889303   -0.199303
H      -0.931343    1.783151   -0.073927
H       0.142368   -3.757813   -0.057998
H       2.180902   -0.162235    0.009878
H      -4.258573   -3.908663   -0.003808
