18

C      -0.072124    1.530095    0.023285
C      -0.008853    0.026015    0.004189
N       0.030079   -0.728320    1.047757
O       0.018739   -0.008078    2.241096
C       0.022963   -0.692535   -1.263412
C       0.015581   -0.190634   -2.502815
C       0.066987   -1.302408   -3.507154
O       0.098101   -2.501247   -2.743565
C       0.083446   -2.200276   -1.349599
H       0.896996    1.957136   -0.258445
H      -0.810760    1.889112   -0.698703
H      -0.333010    1.895302    1.015158
H       0.022493   -0.709263    2.901422
H      -0.016801    0.854471   -2.781771
H      -0.809700   -1.302851   -4.175839
H       0.958708   -1.240157   -4.153051
H       0.983285   -2.603308   -0.864011
H      -0.783248   -2.675328   -0.869286
