19

C      -0.143408    1.522603    0.127925
C       1.380347    1.279251    0.059708
C       1.183078    0.067097    1.036872
C       0.094789   -0.014247   -0.067556
C      -0.854945   -0.949810   -0.776144
N      -1.848821   -0.197250   -1.571816
C      -0.606566   -0.663882   -2.224224
C       0.509891    0.400051   -2.348973
N       1.209632    0.244416   -1.052771
H      -0.557950    1.844882    1.087232
H      -0.606541    2.059038   -0.696724
H       2.195663    2.003113    0.064657
H       1.955564   -0.700854    0.992404
H       0.858549    0.306361    2.050844
H      -1.083976   -1.943474   -0.408221
H      -2.615829   -0.815067   -1.829702
H      -0.678640   -1.445883   -2.973178
H       1.199193    0.162936   -3.164464
H       0.069248    1.385304   -2.551147
