15

O       0.332792    1.205101    0.636175
C       0.070912   -0.072000    0.139908
C      -1.411520   -0.468996    0.046582
N      -1.452495   -1.568311   -0.938396
C      -0.429843   -1.295559   -1.955099
C      -1.006451   -0.781919   -3.205932
N      -1.456806   -0.367685   -4.185472
C       0.513300   -0.234681   -1.311356
O       1.377057    0.402265   -1.844901
H       1.032969    1.583787    0.084729
H       0.599662   -0.851439    0.722589
H      -1.839105   -0.796960    0.994408
H      -1.995359    0.385154   -0.315273
H      -1.266557   -2.457166   -0.491942
H       0.153329   -2.191129   -2.197655
