20

C       0.147873    1.427810   -0.064935
C       0.014166   -0.060266   -0.000477
C      -1.254186   -0.906273   -0.159641
C      -0.388637   -2.104783    0.314061
C       0.611381   -1.051979    0.928734
N       1.200130   -0.887930   -0.436770
C       0.632955   -2.227284   -0.830139
C       1.729340   -3.267910   -0.673006
O       2.828469   -2.967007   -1.510397
H       1.159208    1.735964    0.213576
H      -0.047761    1.793684   -1.079112
H      -0.562666    1.913286    0.612528
H      -1.997883   -0.615132    0.587350
H      -1.727597   -0.979902   -1.145456
H      -0.835960   -2.968528    0.803208
H       1.168908   -0.964491    1.852070
H       0.238806   -2.252606   -1.854109
H       2.032104   -3.329700    0.386097
H       1.359427   -4.255737   -0.968848
H       3.015482   -2.030741   -1.362526
