19

C      -0.019536    1.601600   -0.027677
C       0.154550    0.085245    0.024687
C       1.293086   -0.857718   -0.338768
N       2.721441   -0.578080    0.074994
C       2.828876    0.746835    0.709311
C       2.206682   -0.361644    1.471929
C       0.768934   -0.788030    1.085554
C       0.023324   -1.791716    1.917208
H       0.453126    2.045306   -0.910435
H      -1.086392    1.841165   -0.080343
H       0.374722    2.101067    0.860109
H      -0.747122   -0.414143   -0.333889
H       1.165983   -1.621042   -1.097931
H       3.858045    0.979360    0.973814
H       2.272014    1.587237    0.326117
H       2.713874   -0.825979    2.313228
H      -0.367650   -1.337612    2.836583
H      -0.826849   -2.204492    1.365077
H       0.670440   -2.626644    2.210792
