16

C      -0.039178    1.376567   -0.534355
C      -0.098277   -0.054688   -0.145348
C      -1.064063   -1.007353   -0.047316
C      -2.548190   -0.966164   -0.301709
C      -2.990803   -0.040844   -1.340335
C      -3.385253    0.709324   -2.192516
N      -0.490843   -2.195883    0.406819
C       0.758839   -1.911778    0.553534
O       1.086166   -0.640507    0.241210
H       0.688825    1.536237   -1.337327
H      -1.017741    1.705305   -0.884662
H       0.260816    2.005460    0.311773
H      -2.856326   -1.984234   -0.566882
H      -3.077705   -0.735601    0.633843
H      -3.731193    1.365185   -2.952618
H       1.559092   -2.555146    0.884217
