13

N       0.086503   -1.150721    0.390584
C       0.145921   -0.005937    0.247038
C       0.098195    1.421299    0.014175
O       0.666185    2.282485    1.004111
C       1.297999    2.243480   -0.266674
C       2.690555    1.696229   -0.327699
C       3.601359    1.851195    0.817148
O       2.991196    0.595584    0.512097
H      -0.858336    1.758541   -0.382926
H       1.138716    3.130055   -0.884064
H       3.106803    1.644776   -1.334669
H       4.674325    1.904435    0.644463
H       3.232159    2.333732    1.718940
