13

C       0.020830    1.434122   -0.016578
N      -0.107266   -0.002951   -0.118130
C      -1.258629   -0.662841    0.094886
O      -2.338353   -0.174821    0.396482
C      -1.076022   -2.186469   -0.088694
N      -2.228279   -2.847155    0.124534
O      -0.001114   -2.677815   -0.389483
H       0.747844    1.713094    0.753775
H       0.337220    1.871422   -0.969717
H      -0.957001    1.835991    0.253398
H       0.679469   -0.590819   -0.359535
H      -3.042453   -2.304163    0.367851
H      -2.266587   -3.848291    0.041304
