16

C       0.054982    1.447352   -0.038478
N       0.022930   -0.006367    0.017478
N      -0.060396   -0.624076   -1.184784
C      -0.054861   -1.916886   -1.207759
C       0.029433   -2.809468   -0.033618
O       0.029932   -4.031943   -0.145895
C       0.088708   -2.069025    1.200642
C       0.087799   -0.699933    1.199319
N       0.221385    0.066441    2.350686
H       0.909799    1.835545    0.522376
H       0.146456    1.719520   -1.088069
H      -0.867303    1.890084    0.359209
H      -0.118076   -2.373596   -2.191313
H       0.128205   -2.608340    2.139993
H       0.132375   -0.480010    3.195634
H      -0.342677    0.903777    2.393584
