16

C      -0.050135    1.510481    0.019454
C      -0.015007    0.013142   -0.031105
N      -0.016913   -0.566798   -1.196730
N       0.015636   -1.914478   -1.175229
C       0.050444   -2.732678   -0.063973
O       0.078049   -3.949118   -0.137161
C       0.048163   -1.942064    1.187439
C       0.083713   -2.707365    2.469436
N       0.017099   -0.645707    1.182561
H       0.827570    1.892559    0.550787
H      -0.073102    1.925578   -0.988484
H      -0.931097    1.850540    0.573483
H       0.013941   -2.361836   -2.083026
H       0.974043   -3.344908    2.501282
H       0.077965   -2.023886    3.318333
H      -0.772924   -3.388045    2.524013
