17

C      -0.506487    1.451868    0.013829
C       0.155064    0.088756    0.025782
C       1.013724   -0.247170   -1.250485
C       2.283432   -0.743910   -0.619156
C       2.181314   -0.524695    0.725739
N       3.318265   -0.909780    1.325443
N       4.208499   -1.394532    0.397748
C       3.576254   -1.285238   -0.772528
O       1.051479    0.020426    1.203626
H       0.240344    2.239877   -0.122807
H      -1.224815    1.509771   -0.810319
H      -1.040577    1.636107    0.949872
H      -0.590464   -0.697412    0.187205
H       0.493604   -0.981541   -1.873740
H       1.160397    0.651331   -1.864062
H       3.571598   -0.895338    2.297431
H       4.086074   -1.607819   -1.668949
