23

C      -0.012526    1.509085    0.047928
C       0.027904   -0.001270    0.037084
C       0.996750   -0.803806   -0.889025
C       0.713000   -1.950791    0.123812
C       1.635068   -3.134410    0.252400
O       1.189715   -3.928262    1.346739
C       0.642009   -0.832428    1.205924
C      -0.785259   -2.226434   -0.131816
C      -1.301633   -0.754345   -0.196808
H       0.981542    1.936592    0.217734
H      -0.386741    1.902061   -0.904997
H      -0.674725    1.880197    0.839181
H       0.708734   -0.954865   -1.935118
H       2.025286   -0.435169   -0.831455
H       1.625878   -3.713047   -0.687297
H       2.668684   -2.786111    0.411608
H       1.771879   -4.689683    1.421818
H       1.632892   -0.473064    1.498628
H       0.028488   -1.012129    2.093625
H      -0.945771   -2.773690   -1.066696
H      -1.232440   -2.806445    0.678139
H      -2.039839   -0.529218    0.579883
H      -1.749728   -0.502376   -1.163662
