12

O       0.226889    1.331870    0.457794
C      -0.016012    0.029276    0.045442
C      -1.475332   -0.358396   -0.171285
O      -2.458313    0.064522    0.362356
C      -1.423749   -1.433539   -1.266526
O      -0.159676   -1.252806   -1.933834
C       0.602396   -0.327855   -1.301260
O       1.605808    0.137418   -1.756910
H       1.039403    1.611115    0.011779
H       0.374205   -0.722652    0.763466
H      -1.475545   -2.441181   -0.839354
H      -2.232981   -1.309101   -1.989519
