13

N      -0.057103    1.313278    0.016348
C      -0.000197    0.058861   -0.002784
N      -1.109261   -0.783774    0.026142
C      -0.781857   -2.114320   -0.009065
O      -1.506296   -3.074674   -0.002639
C       0.757615   -2.097640   -0.026003
O       1.118015   -0.726394   -0.069087
C       1.305771   -2.803486    1.215610
O       1.927974   -2.249322    2.075550
H       0.874882    1.721298   -0.008166
H      -2.050458   -0.425941    0.069953
H       1.122576   -2.618586   -0.920340
H       1.054827   -3.884209    1.241937
