18

C       0.027984    1.368666   -0.298070
C       1.466902    1.586127    0.203374
C       1.335135    0.159752    0.768598
O      -0.001834    0.028939    0.241307
C       2.222573   -1.033820    0.498186
C       3.198445   -1.149214    1.625124
C       2.949668   -0.020020    2.613223
C       1.473515   -0.249372    2.245179
N       1.816843   -1.709673    1.786645
H      -0.737612    2.008216    0.156730
H      -0.107004    1.371387   -1.385801
H       2.224599    1.704428   -0.573373
H       1.598057    2.369380    0.953253
H       2.318807   -1.591346   -0.426570
H       4.061115   -1.803351    1.559457
H       3.165669   -0.342121    3.635059
H       3.386992    0.968555    2.435765
H       0.652805   -0.078157    2.938837
