19

O      -0.075102    1.429421    0.027976
C       0.000164    0.008035    0.017787
C      -1.399051   -0.539205    0.055441
C      -2.338751   -0.476371    1.300294
C      -3.088442   -1.569327    0.512567
O      -3.546348   -0.899440   -0.681561
C      -2.384053   -0.096471   -1.033300
C      -1.704101   -2.089440    0.060355
O      -1.622536   -2.831153   -1.117586
H       0.818962    1.778991   -0.029895
H       0.505111   -0.359445   -0.890662
H       0.568143   -0.367288    0.883921
H      -1.866012   -0.847834    2.211871
H      -2.873516    0.455458    1.487819
H      -3.885814   -2.195461    0.909389
H      -2.629457    0.967269   -0.987949
H      -2.048023   -0.349479   -2.045374
H      -1.147847   -2.610253    0.842891
H      -2.398351   -2.586904   -1.640275
