20

C      -0.188932    1.535192    0.097123
N      -0.081367    0.093514    0.172017
C      -1.336672   -0.650804    0.035790
C      -1.101031   -1.874479    0.871295
C       0.013498   -1.772895    1.594480
C       0.566439   -2.728310    2.601775
C       0.684783   -0.438614    1.292851
C       2.148999   -0.645207    0.902830
O       3.063975   -0.682774    1.683685
H       0.806850    1.989761    0.116795
H      -0.663878    1.823462   -0.846226
H      -0.779471    1.975487    0.922784
H      -2.207729   -0.081718    0.415267
H      -1.550683   -0.876837   -1.019194
H      -1.795014   -2.706178    0.903899
H      -0.046014   -3.631284    2.663933
H       1.594684   -3.020523    2.362612
H       0.603423   -2.269473    3.597711
H       0.675851    0.201963    2.194822
H       2.287071   -0.790549   -0.192730
