17

O       0.301811    0.068115   -0.135659
C       0.093844    1.247394   -0.041090
N      -1.058025    1.996689   -0.021480
C      -0.404250    3.294834    0.156878
C       0.960627    2.533554    0.118094
C       1.846046    2.603441    1.330656
C       3.273947    2.128259    1.248056
C       2.980897    3.599374    1.397519
H      -2.029436    1.730607   -0.082588
H      -0.574872    4.002539   -0.660642
H      -0.623259    3.780068    1.113791
H       1.532731    2.742170   -0.791294
H       1.332742    2.401950    2.267815
H       3.683414    1.592813    2.096806
H       3.631906    1.773516    0.287728
H       3.144228    4.240964    0.537643
H       3.190099    4.074043    2.349715
