14

C       0.043771    1.686994    0.297158
C      -0.029396    0.177669    0.058041
C       0.645179   -0.416483   -1.187670
O       1.596469   -1.150147   -0.338434
C       1.059403   -0.638679    0.804435
O       1.396224   -0.810494    1.929879
C      -1.421996   -0.357730    0.346184
O      -2.044063   -1.072849   -0.394059
H       1.062861    2.055523    0.153405
H      -0.618100    2.223778   -0.389452
H      -0.257289    1.924247    1.321908
H       0.028423   -1.104405   -1.765088
H       1.174335    0.290509   -1.828353
H      -1.834155   -0.030779    1.324968
