23

C      -0.007107    1.613240    0.201657
C       0.026974    0.085523    0.295944
C      -1.351939   -0.559934    0.123785
C      -1.324185   -2.092645    0.214112
C      -2.711274   -2.707816    0.099771
C      -3.482443   -2.871222   -1.246279
C      -2.556532   -4.038718   -1.663219
C      -2.973093   -4.215592   -0.183156
O      -4.358596   -3.858156   -0.571552
H       0.990999    2.044139    0.328012
H      -0.390521    1.941503   -0.770923
H      -0.655411    2.043480    0.973180
H       0.711152   -0.313594   -0.464764
H       0.446641   -0.213396    1.265707
H      -2.036555   -0.163506    0.886275
H      -1.774761   -0.259979   -0.845040
H      -0.646753   -2.487151   -0.551794
H      -0.892545   -2.387840    1.180504
H      -3.379104   -2.338187    0.884170
H      -3.967721   -2.117317   -1.867506
H      -3.010153   -4.753453   -2.350607
H      -1.511766   -3.831532   -1.901272
H      -2.844438   -5.076419    0.474637
