15

C      -0.041680    1.413799    0.340971
C      -0.029346   -0.016814   -0.049384
C      -0.884802   -0.848445   -0.689117
N      -0.322867   -2.120279   -0.772451
C       0.825005   -2.001205   -0.190108
C       1.829144   -3.095103   -0.012718
O       1.358697   -4.295861   -0.570119
O       1.085747   -0.761004    0.278182
H       0.785908    1.963668   -0.120693
H      -0.979062    1.873459    0.020095
H       0.046238    1.535123    1.426297
H      -1.859438   -0.628801   -1.094752
H       2.778762   -2.795518   -0.483553
H       2.040149   -3.223176    1.060708
H       0.483889   -4.106107   -0.936864
