23

C       0.117921    1.564367    0.062945
C       0.001046    0.030787   -0.015126
C       0.567707   -0.585753    1.278888
C      -1.486677   -0.364541   -0.128440
C       0.782829   -0.539750   -1.264640
C       2.230563   -0.043862   -1.378200
O       0.735728   -1.969574   -1.270699
C       0.041367   -0.167840   -2.553411
O       0.070862    0.918403   -3.071905
H       1.138557    1.882217    0.296123
H      -0.177880    2.040947   -0.874585
H      -0.532808    1.943072    0.858401
H       0.035977   -0.175732    2.143605
H       0.433348   -1.671700    1.303905
H       1.629862   -0.361069    1.419057
H      -1.981723    0.153307   -0.956640
H      -1.593621   -1.441593   -0.282073
H      -2.020430   -0.093634    0.788187
H       2.787407   -0.204494   -0.450226
H       2.736049   -0.590982   -2.179134
H       2.256638    1.019049   -1.623136
H       1.361957   -2.292320   -0.616251
H      -0.531801   -1.014127   -2.989158
