18

C      -0.155977    1.540150   -0.067467
C       0.003745    0.018623   -0.010234
O      -1.268284   -0.616482    0.030533
C       0.893201   -0.490907   -1.190729
C       2.241951   -0.706371   -0.569937
C       2.183500   -0.661996    0.768844
C       0.774888   -0.413234    1.266464
C       3.283715   -0.857766    1.647475
N       4.161574   -1.008929    2.388339
H       0.818784    2.037905   -0.043200
H      -0.660233    1.844104   -0.993064
H      -0.748839    1.891943    0.781665
H      -1.813424   -0.243844   -0.670616
H       0.485719   -1.436348   -1.572771
H       0.921682    0.209410   -2.034082
H       3.142716   -0.901067   -1.139936
H       0.730444    0.340817    2.057934
H       0.332392   -1.331841    1.667575
