19

C      -0.233208    1.535902    0.059173
C       0.047331    0.032150   -0.073153
C       0.781398   -0.517180    1.117879
C       0.114158   -0.977683    2.432434
C       1.013527   -1.900756    1.692247
C       0.772310   -3.282469    1.189202
O       2.393147   -1.550527    2.048844
C       2.239320   -0.312366    1.439919
O       3.078849    0.507562    1.246307
H       0.701677    2.090340    0.180621
H      -0.744854    1.916727   -0.829504
H      -0.863551    1.743004    0.929904
H      -0.893676   -0.517237   -0.199685
H       0.638764   -0.151827   -0.978141
H       0.424217   -0.569156    3.389117
H      -0.952902   -1.158917    2.330484
H      -0.261403   -3.384437    0.846882
H       1.443120   -3.516599    0.357558
H       0.940133   -4.017379    1.983534
