17

C       0.056399    1.521541   -0.093057
C      -0.023565    0.022874   -0.063810
C      -1.158157   -0.678792    0.024321
C      -1.161480   -2.184809    0.055656
O      -2.262738   -2.746410   -0.644139
C       0.085295   -2.683214   -0.664257
O       1.272954   -2.045694   -0.186357
C       1.287397   -0.694440   -0.045164
O       2.336668   -0.132436    0.135931
H       0.646609    1.892073    0.750261
H       0.565740    1.865895   -0.999222
H      -0.940040    1.968576   -0.058682
H      -2.120923   -0.174679    0.086215
H      -1.147443   -2.535316    1.101319
H      -3.058518   -2.609216   -0.121275
H       0.234708   -3.752911   -0.510864
H      -0.037419   -2.494894   -1.738095
