17

C      -0.018037    1.394121    0.007261
N       0.012150   -0.060265    0.002318
C      -1.095683   -0.699133    0.009311
N      -2.352944   -0.014170    0.021502
N      -3.456478   -0.626215    0.028115
N      -3.459687   -1.975520    0.023545
C      -2.323954   -2.751858    0.012020
C      -1.114302   -2.159884    0.004476
C       0.175973   -2.912442   -0.008326
H       1.009863    1.766522   -0.001667
H      -0.543449    1.801855   -0.866036
H      -0.525844    1.795962    0.893629
H      -4.384927   -2.371497    0.029552
H      -2.480324   -3.824424    0.009686
H       0.012697   -3.993733   -0.009497
H       0.767971   -2.633222   -0.886132
H       0.782878   -2.637201    0.860481
