17

C      -0.138446    1.558525    0.070670
C      -0.009638    0.054712    0.046483
C       1.324496   -0.632116   -0.227099
C       2.541215    0.103245   -0.376479
C       3.582672    0.697245   -0.484117
C       0.671096   -0.680275    1.178171
O       1.224996    0.130248    2.167890
C       0.156231   -1.949024    1.624953
C      -0.258760   -3.014746    1.997875
H       0.732527    2.021433    0.534865
H      -0.237450    1.947126   -0.947907
H      -1.026783    1.856076    0.636452
H      -0.857084   -0.475483   -0.377252
H       1.273467   -1.560697   -0.786767
H       4.495125    1.228430   -0.596622
H       2.131432   -0.160369    2.324331
H      -0.631884   -3.949994    2.335149
