16

C      -0.050176    1.428832   -0.040031
O       0.140471    0.036550    0.080316
C       0.670537   -0.581614   -1.080640
C       1.184696   -1.987001   -0.737457
C       0.578135   -2.916755   -1.797254
O       0.854990   -4.079318   -1.971307
C      -0.407660   -2.107329   -2.558650
C      -0.371341   -0.832848   -2.158878
H       0.888455    1.944781   -0.295850
H      -0.803597    1.690130   -0.797750
H      -0.398251    1.789054    0.930731
H       1.477648    0.050416   -1.488178
H       2.272503   -2.077030   -0.713918
H       0.804442   -2.271948    0.248381
H      -1.041917   -2.537849   -3.323582
H      -0.993498   -0.033852   -2.547156
