23

C       0.072825    1.551453   -0.295220
C      -0.042320    0.081945    0.049383
C       1.162835   -0.828111    0.003665
C       0.504699   -0.510758    1.328238
C       1.220140    0.307044    2.384015
C       2.065152   -0.565640    3.299197
C       2.621979    0.058948    4.598634
C       1.825913   -1.054876    5.306030
O       1.262699   -1.508315    4.058832
H       1.036518    1.970413    0.008991
H      -0.019817    1.703828   -1.376337
H      -0.713267    2.140549    0.190947
H      -0.972910   -0.367438   -0.289347
H       1.059618   -1.824858   -0.411313
H       2.124127   -0.363575   -0.199477
H      -0.090510   -1.311063    1.758963
H       1.877688    1.055135    1.923956
H       0.492640    0.853672    2.999142
H       2.820851   -1.102679    2.708048
H       3.705560    0.033139    4.722285
H       2.261423    1.071477    4.793702
H       2.438183   -1.831197    5.783359
H       1.052737   -0.732912    6.013695
