17

C       0.034989    1.571953    0.121830
O       1.497881    1.535626   -0.078860
C       1.280666    0.294906   -0.855585
C       1.623641   -1.200860   -0.696658
C       1.764092   -1.377273    0.814591
C       0.324641   -0.935296    1.092568
O      -0.442086   -2.002855    0.453971
C      -0.082852   -1.395458   -0.757784
C       0.021106    0.045325   -0.135993
H      -0.230201    1.911370    1.126908
H      -0.449349    2.192636   -0.640479
H       1.137808    0.565218   -1.909554
H       2.297235   -1.723181   -1.374837
H       1.932970   -2.404646    1.141954
H       2.519556   -0.712228    1.238375
H      -0.013616   -0.710872    2.103173
H      -0.571935   -1.761153   -1.659536
