22

C      -0.198124    1.567309   -0.125695
C      -0.013058    0.044255   -0.014407
C      -1.356167   -0.656101    0.228566
C       0.737116   -0.487774   -1.215682
C       0.107807   -0.889184   -2.523494
C       0.918014   -1.909532   -1.765360
C       2.411180   -1.663844   -1.996617
C       2.231921   -0.205021   -1.462681
H       0.760868    2.077652   -0.261393
H      -0.834138    1.818350   -0.982023
H      -0.669662    1.973629    0.775398
H       0.620555   -0.148215    0.864679
H      -2.073413   -0.436063   -0.569637
H      -1.238396   -1.742789    0.289000
H      -1.800518   -0.315045    1.169115
H      -0.965137   -1.049398   -2.505493
H       0.477346   -0.484664   -3.464554
H       0.474409   -2.838803   -1.425770
H       3.054571   -2.263325   -1.348464
H       2.760679   -1.773534   -3.029129
H       2.459964    0.608602   -2.159572
H       2.787957   -0.032634   -0.536799
