20

C       0.410484    1.339435    0.122744
O       0.183008   -0.076467    0.113945
C       0.730703   -0.758376    1.135603
O       1.367290   -0.244471    2.024391
C       0.446953   -2.241811    1.010854
C       1.428055   -2.997755    0.063278
C       2.032546   -3.629783    1.348464
C       3.427157   -3.152186    1.730828
N       0.910046   -3.053672    2.148188
H       1.480600    1.558499    0.085750
H      -0.089807    1.726133   -0.765000
H      -0.008867    1.790080    1.025698
H      -0.614788   -2.365907    0.770663
H       0.927888   -3.702641   -0.601895
H       2.102559   -2.371449   -0.524147
H       2.006644   -4.725910    1.357351
H       3.484701   -2.059172    1.723922
H       3.690696   -3.498399    2.736667
H       4.177217   -3.547089    1.036186
H       1.221221   -2.473847    2.923366
