16

C       0.039543    1.578759   -0.036619
C       0.023986    0.081197   -0.057926
C       0.545002   -0.929697   -1.127299
C       0.844876   -1.868124   -0.025576
C       0.636670   -0.845772    1.098443
C      -0.809248   -1.077555    1.569170
O      -1.365881   -1.151072    2.623375
C      -1.236842   -0.852188    0.110478
N      -0.515603   -1.894693   -0.715327
H       1.062968    1.966410   -0.085285
H      -0.517533    1.991517   -0.884808
H      -0.419286    1.958086    0.883361
H       0.910561   -0.845324   -2.143490
H       1.408810   -2.791298   -0.012687
H       1.456922   -0.563034    1.752610
H      -2.254823   -0.643510   -0.209182
