17

C       0.089725    1.522405    0.184160
C      -0.025257    0.011632    0.001587
N      -1.424682   -0.356511   -0.230526
C       0.745799   -0.467296   -1.288981
O       0.099959    0.040617   -2.432046
C       2.148187   -0.048782   -1.276965
C       3.301291    0.281171   -1.237283
C       0.695132   -1.961283   -1.296907
N       0.589920   -3.111913   -1.271815
H       1.130663    1.818123    0.323887
H      -0.306379    2.045186   -0.690110
H      -0.476078    1.835127    1.067630
H       0.424504   -0.501104    0.862760
H      -1.585907   -1.340358   -0.039466
H      -2.044767    0.183179    0.361415
H      -0.846044   -0.008406   -2.196866
H       4.323234    0.571773   -1.218098
