15

O       0.079342    1.277128   -0.004559
C       0.065996   -0.070894    0.062782
N       0.090991   -0.817501   -1.042693
N       0.066240   -2.075363   -0.551293
C       0.073540   -3.377335   -1.179682
C       0.031436   -4.276457    0.040706
C       0.005434   -3.542594    1.168164
C       0.027397   -2.133130    0.804081
C       0.025658   -0.824740    1.260375
H       0.107995    1.510505   -0.940849
H      -0.795457   -3.517021   -1.834985
H       0.976088   -3.531422   -1.784460
H       0.024604   -5.354438   -0.033836
H      -0.026462   -3.917424    2.181142
H       0.000163   -0.455101    2.270535
