16

O       0.032861    0.097448    0.577993
C      -0.023373    1.186521    0.080043
C      -1.332919    1.941408   -0.171367
C      -1.096861    3.307160   -0.818388
C      -0.088651    3.120051   -1.990505
C       0.996381    3.127930   -0.890157
C       0.054753    4.016348   -0.046253
O       1.120400    1.820474   -0.296572
H      -1.960274    1.296387   -0.796353
H      -1.842959    2.029625    0.794195
H      -2.027092    3.848654   -0.999403
H      -0.165506    2.224856   -2.613064
H      -0.019582    4.008397   -2.622411
H       2.015030    3.444488   -1.111223
H       0.150139    5.069179   -0.321357
H       0.103971    3.909124    1.040458
