23

C      -0.046850    1.254736   -0.507391
C       0.060851   -0.219819   -0.114271
C       0.865305   -0.449554    1.170919
C       0.956298   -1.936077    1.521651
C       1.509591   -2.213595    2.915329
C       1.999336   -3.627528    3.167164
O       1.542955   -1.365938    3.779041
O       2.194128    0.042162    0.996988
C       2.572846    1.087757    1.872976
H       0.947005    1.683416   -0.660673
H      -0.613765    1.374341   -1.435610
H      -0.553271    1.838900    0.269301
H      -0.941045   -0.647514    0.019296
H       0.537738   -0.783142   -0.926664
H       0.384054    0.076321    2.005856
H      -0.036351   -2.407375    1.472390
H       1.572017   -2.451613    0.774786
H       1.265114   -4.365017    2.825263
H       2.915324   -3.801531    2.589931
H       2.209658   -3.768800    4.227970
H       1.967041    1.992921    1.719095
H       2.492810    0.781678    2.922519
H       3.615113    1.328189    1.644441
