15

N       0.064593   -1.036943   -0.042693
C       0.014779    0.118994   -0.010774
C      -0.039594    1.539959    0.019429
C       0.132265    2.445192   -1.225026
C       1.063391    2.571289   -0.041839
C       0.004601    3.509273    0.579320
C      -0.793910    3.598342   -0.766492
C      -1.961311    2.924170   -0.023430
N      -0.936282    2.331757    0.918370
H       0.319459    2.044833   -2.211256
H       2.131692    2.451658    0.068268
H       0.138024    4.295464    1.317594
H      -0.876362    4.485740   -1.391995
H      -2.583803    3.631304    0.531773
H      -2.587339    2.197423   -0.547894
