17

C       0.126498    1.528655    0.032961
C       0.069554    0.075152   -0.021905
C       0.017999   -1.125493   -0.066937
C      -0.040844   -2.588277   -0.122002
C      -1.400832   -3.123000   -0.067509
C      -2.522446   -3.573670   -0.022954
C      -3.783864   -4.080416    0.027168
C      -4.905757   -4.532046    0.071719
C      -6.251965   -5.072985    0.125180
H       0.702651    1.872617    0.898907
H       0.597006    1.943348   -0.865245
H      -0.877677    1.959574    0.110379
H       0.449665   -2.943032   -1.040128
H       0.546963   -3.012640    0.704924
H      -6.252493   -6.153644   -0.057335
H      -6.710209   -4.901142    1.105786
H      -6.896577   -4.608112   -0.629455
