21

O       0.135833    1.408250   -0.104526
C       0.034911   -0.000461   -0.022232
C       0.720497   -0.613397    1.243509
C      -0.410282   -1.336026    2.004504
C      -1.289442   -1.840624    0.842457
C      -1.432900   -0.534709    0.041764
C      -2.298337    0.432187    0.859800
O      -1.645174    0.789288    2.079407
C      -1.232215   -0.342986    2.842180
H      -0.195942    1.747974    0.737161
H       0.518219   -0.370329   -0.931002
H       1.497887   -1.328010    0.956000
H       1.204685    0.173825    1.828950
H      -0.047600   -2.135823    2.657595
H      -0.770979   -2.614071    0.264655
H      -2.250519   -2.253435    1.167784
H      -1.874162   -0.667400   -0.950179
H      -2.457746    1.371537    0.325318
H      -3.281107   -0.018791    1.069437
H      -2.113571   -0.850399    3.267675
H      -0.641028    0.060876    3.670148
