17

C       0.199373    1.381831   -0.007483
N      -0.247732    0.000184   -0.002154
C      -0.087545   -0.717891    1.250613
C      -0.037363   -0.744561   -1.151513
C       0.017415   -2.117088   -1.358214
C       0.196275   -2.256804   -2.751569
N       0.262064   -1.092751   -3.380230
N       0.120504   -0.179024   -2.380024
H       1.289998    1.490240   -0.128659
H      -0.295305    1.943691   -0.807295
H      -0.090046    1.851262    0.935338
H      -0.417583   -0.078270    2.072939
H      -0.717120   -1.611330    1.246063
H       0.952168   -1.029224    1.442461
H      -0.056091   -2.894425   -0.617581
H       0.283724   -3.173229   -3.317813
H       0.138427    0.796888   -2.613619
