18

C       0.024385    1.498468    0.067520
C      -0.022045   -0.008539   -0.011939
C       0.697353   -0.678771   -1.236722
C       0.991271   -2.099501   -0.679077
C       0.377472   -1.974994    0.755204
O       0.695911   -0.618420    1.077521
C      -1.135825   -1.916436    0.582080
C      -1.383063   -0.699924    0.098927
H       1.059944    1.850790    0.052639
H      -0.501606    1.943040   -0.783204
H      -0.448174    1.851392    0.988457
H       0.077469   -0.679888   -2.136254
H       1.622614   -0.139995   -1.458243
H       0.538634   -2.904005   -1.263170
H       2.065765   -2.285702   -0.611560
H       0.776622   -2.656611    1.505511
H      -1.817896   -2.745061    0.718144
H      -2.318116   -0.285580   -0.254867
