17

N      -0.057587    1.371794   -0.057852
C      -0.063116    0.002357    0.026653
N      -1.117505   -0.700193    0.249530
C      -0.809521   -2.135024    0.076258
C       0.691892   -2.201486   -0.157655
C       1.652753   -2.613533   -1.297454
C       2.164581   -1.125986   -1.345736
C       1.173384   -0.811760   -0.205431
O       1.473468   -1.666351    0.907462
H       0.781933    1.836572    0.252121
H      -0.913462    1.811838    0.250221
H      -1.132930   -2.695209    0.960081
H      -1.361422   -2.535120   -0.783587
H       2.381710   -3.383358   -1.036906
H       1.127353   -2.901550   -2.210448
H       3.216863   -0.950250   -1.113439
H       1.907317   -0.624899   -2.280785
