17

C      -0.018799    1.469738    0.059832
C       0.026499   -0.024185   -0.070672
N      -0.033539   -0.606219   -1.194622
C      -0.040538   -2.063013   -1.253003
C      -0.381990   -2.726339    0.077807
O      -0.017114   -4.094175   -0.000724
C       0.402855   -2.007322    1.173789
O       0.131787   -0.603940    1.164266
H       0.903504    1.839425    0.519472
H      -0.146825    1.919386   -0.923647
H      -0.845400    1.766353    0.713463
H      -0.750843   -2.374893   -2.025820
H       0.944897   -2.422535   -1.578251
H      -1.458257   -2.610533    0.277040
H      -0.395881   -4.556481    0.753813
H       0.134249   -2.362483    2.173370
H       1.475970   -2.181042    1.019992
