21

O      -0.240178    1.524808    0.278308
C       0.014245    0.148607   -0.007201
C       0.888402   -0.454320    1.123648
C       1.604801   -1.752542    0.828149
C       1.045415   -2.957983    0.730089
C      -0.440806   -3.222422    0.833106
C      -1.119263   -2.968782   -0.495840
C      -1.496377   -1.765096   -0.924916
C      -1.392908   -0.471491   -0.152088
H       0.606736    1.965738    0.399140
H       0.549394    0.051497   -0.964457
H       1.646420    0.299126    1.371553
H       0.259113   -0.548134    2.018083
H       2.679726   -1.676273    0.680276
H       1.677370   -3.813013    0.501270
H      -0.618140   -4.252547    1.157338
H      -0.876596   -2.566523    1.596864
H      -1.242008   -3.826804   -1.152606
H      -1.923795   -1.688130   -1.922144
H      -1.816284   -0.585944    0.854145
H      -1.998886    0.290136   -0.650313
