20

C       0.089887    1.551173   -0.007908
C      -0.000542    0.023579    0.004073
C      -1.447397   -0.511878   -0.002945
C      -1.512950   -2.071224   -0.030232
N      -2.105713   -2.440515    1.267046
C      -2.256990   -3.709895    1.739510
O      -2.773211   -4.000226    2.799071
C      -2.536332   -1.283850    1.930113
C      -2.227167   -0.176749    1.255159
H       1.132108    1.881961   -0.042956
H      -0.421720    1.971647   -0.881175
H      -0.364543    1.987906    0.886786
H       0.521606   -0.378579   -0.874082
H       0.517932   -0.374422    0.885615
H      -1.947664   -0.107028   -0.892240
H      -2.144039   -2.433272   -0.848633
H      -0.521005   -2.519963   -0.142334
H      -1.846914   -4.460900    1.036224
H      -3.049488   -1.411364    2.871435
H      -2.465248    0.828209    1.571031
