23

C       0.100673    1.603236    0.026818
C       0.022116    0.070117   -0.023045
C       0.663785   -0.436255   -1.327286
C       0.727255   -1.971460   -1.456957
C      -0.615275   -2.622891   -1.288511
C      -1.142600   -2.979955   -0.110553
C      -0.506500   -2.867084    1.204723
C       0.266979   -1.903699    1.728047
C       0.662417   -0.528050    1.246500
H       1.141577    1.942694    0.095886
H      -0.333406    2.051494   -0.873157
H      -0.436646    2.002843    0.893343
H      -1.036585   -0.211667   -0.029879
H       0.102584   -0.022642   -2.175121
H       1.682133   -0.032100   -1.407833
H       1.149976   -2.227873   -2.435107
H       1.413643   -2.364120   -0.697692
H      -1.200101   -2.793716   -2.190054
H      -2.110153   -3.479946   -0.112234
H      -0.702774   -3.718210    1.857580
H       0.652112   -2.107330    2.727659
H       1.760346   -0.489294    1.156300
H       0.442868    0.150774    2.083974
