17

C      -0.020250    1.595279    0.094152
C       1.494471    1.375739   -0.057212
O       1.840369    0.801691    1.241276
C       1.162711   -0.404500    0.989515
C       1.006604   -1.793900    1.580726
O       1.119723   -2.296501    0.205935
C       1.820331   -1.066468   -0.213839
C       1.138885    0.045659   -0.976253
C      -0.045130    0.068297    0.040461
H      -0.347709    2.123314    0.993064
H      -0.474051    2.027917   -0.801736
H       2.213768    2.141538   -0.340175
H       1.845377   -2.134863    2.200716
H       0.051739   -2.064366    2.040667
H       2.897250   -1.235574   -0.285633
H       1.057777    0.202098   -2.052727
H      -0.932941   -0.553204   -0.028216
