19

C      -0.048471    1.596145    0.113553
C       0.084079    0.086896   -0.071685
N       0.677395   -0.510022    1.125834
C       0.750528   -1.978204    1.175045
C       1.446470   -2.654968   -0.041238
C       1.466226   -2.353689    2.403846
C       2.098915   -2.654565    3.378157
C      -0.639190   -2.500629    1.258179
N      -1.715602   -2.918401    1.281152
H       0.933005    2.064728    0.250262
H      -0.512860    2.050960   -0.766184
H      -0.657710    1.823932    0.991973
H      -0.908773   -0.357325   -0.206419
H       0.654107   -0.121468   -0.992385
H       1.606986   -0.140417    1.295665
H       2.469156   -2.276901   -0.119784
H       1.480840   -3.738321    0.093089
H       0.906859   -2.434207   -0.964254
H       2.639970   -2.921890    4.252638
