21

C       0.212227    1.368431    0.109589
O      -0.233945    0.075590   -0.239441
C       0.534431   -0.536814   -1.234158
C       1.822637   -1.340644   -0.767463
C       0.817026   -2.425573   -0.265684
C       0.031454   -1.995727   -1.557703
C      -1.430541   -2.303857   -1.774537
C       1.065802   -2.343598   -2.634864
C       2.225700   -1.917719   -2.120828
H       1.220032    1.352168    0.549180
H       0.227488    2.038462   -0.763614
H      -0.488063    1.765291    0.848332
H       0.678697    0.135182   -2.093175
H       2.588255   -0.904690   -0.126409
H       1.177404   -3.456353   -0.223313
H       0.301831   -2.141185    0.654333
H      -2.036844   -1.878907   -0.969580
H      -1.788909   -1.884850   -2.721883
H      -1.605866   -3.385071   -1.800719
H       0.850526   -2.790525   -3.595983
H       3.216699   -1.917102   -2.552862
