16

O      -0.022024    0.034152   -0.346259
C       0.017739    1.199311   -0.036665
C      -1.267160    1.966751    0.317039
O      -1.096323    3.336860    0.667006
C       0.241968    3.800459    0.639007
C       0.963162    3.392883   -0.671610
C       1.269235    2.036504    0.045987
C       1.198635    2.837496    1.388305
H      -1.944298    1.893625   -0.543733
H      -1.751104    1.437442    1.147951
H       0.199279    4.851375    0.927231
H       0.374989    3.380648   -1.592461
H       1.879705    3.966635   -0.826569
H       2.156717    1.458997   -0.211167
H       2.158323    3.309487    1.610745
H       0.817814    2.336178    2.281456
