22

C      -0.306119    1.369830   -0.309697
C       0.460751    0.069597   -0.203345
C       1.876019    0.038434    0.263022
N       0.812947   -0.545318    1.077867
C       0.453987    0.113224    2.327067
C       1.079488   -0.632280    3.497038
C       2.571983   -0.395134    3.823786
C       2.046197    0.076427    5.193486
O       0.675349   -0.060365    4.764421
H       0.059546    2.127772    0.387099
H      -0.211424    1.775726   -1.322418
H      -1.373557    1.216397   -0.115436
H       0.164886   -0.671286   -0.945783
H       2.596453   -0.656914   -0.160480
H       2.302244    0.987109    0.590570
H       0.752214    1.173215    2.379361
H      -0.635699    0.074803    2.447414
H       0.805745   -1.693259    3.431649
H       3.211259   -1.278599    3.827215
H       3.043928    0.386499    3.224500
H       2.278290   -0.590082    6.034362
H       2.283299    1.106400    5.485312
