18

O      -0.043199   -0.008246   -0.084681
C      -0.082806    1.189000   -0.045038
N      -1.155871    2.017071   -0.305075
C      -0.893068    3.363851    0.160906
C       0.649174    3.362515    0.140720
C       1.316228    4.110875   -1.043533
C       1.608603    5.289402   -0.073728
C       1.361683    4.320025    1.117166
O       0.992104    1.978331    0.265794
H      -2.073057    1.603380   -0.263488
H      -1.313453    4.123287   -0.504633
H      -1.276565    3.539618    1.176867
H       2.230196    3.591823   -1.341456
H       0.706007    4.300164   -1.929798
H       2.593939    5.752549   -0.139680
H       0.851406    6.075497   -0.131717
H       0.786001    4.680815    1.973498
H       2.288838    3.867047    1.476050
