18

C      -0.254684    1.569359    0.245242
C      -0.006742    0.094335   -0.009848
C       1.405178   -0.351807   -0.370380
C       0.816688   -0.679490    0.982778
O       1.233424    0.015485    2.119599
C      -1.185190   -0.581552   -0.710573
O      -1.441497   -0.023289   -1.988287
C      -1.025481   -2.049287   -0.819380
N      -0.882053   -3.190836   -0.929188
H       0.601036    2.021753    0.746729
H      -0.443059    2.095521   -0.694154
H      -1.128684    1.708844    0.891521
H       1.547973   -1.170487   -1.068915
H       2.161250    0.424750   -0.409403
H       0.547283   -1.720195    1.157052
H       2.095189   -0.328344    2.377003
H      -2.097350   -0.394625   -0.131252
H      -0.627753   -0.090579   -2.502913
