19

C      -0.073550    1.553254   -0.014772
C       0.084629    0.046814    0.053420
C       1.319167   -0.724182   -0.238706
C       2.590122   -0.023754    0.259791
C       2.038331   -0.057158    1.710847
O       2.004498    1.201304    2.346682
C       0.730129   -0.691895    1.219445
C       0.038014   -1.768606    1.927798
O       0.287388   -2.103985    3.064959
H       0.775565    2.079241    0.419780
H      -0.197203    1.872464   -1.055560
H      -0.966939    1.862487    0.537410
H      -0.803671   -0.488421   -0.284084
H       1.310526   -1.585738   -0.895706
H       3.496916   -0.617048    0.135076
H       2.763759    0.976962   -0.142906
H       2.576292   -0.790777    2.322732
H       1.620830    1.079354    3.221757
H      -0.757714   -2.281827    1.337774
