17

C       0.086069    1.483479    0.207679
C       1.549811    1.791939    0.000391
C       2.168216    0.735023   -0.548192
C       3.235118    0.042300    0.272928
N       2.932578    0.256393    1.723613
C       2.370659   -0.917740    1.020509
C       0.970073   -0.988778    0.358038
C       1.096567   -0.288969   -0.941605
N      -0.051514    0.045610   -0.108335
H      -0.184413    1.698842    1.248073
H      -0.622759    2.023218   -0.434854
H       2.055497    2.554341    0.580518
H       4.245207   -0.197293   -0.039869
H       3.724289   -0.070632    2.279343
H       2.742954   -1.896116    1.312784
H       0.476601   -1.950006    0.460120
H       0.967041   -0.699088   -1.939327
