12

O       0.028514    1.329162    0.008195
C      -0.025706   -0.009348    0.000972
C      -1.202463   -0.677933    0.003732
C      -1.202823   -2.114692   -0.004388
N      -2.216592   -2.870323   -0.002991
O       0.103903   -2.694960   -0.014885
C       1.183208   -1.915619   -0.016433
N       1.211698   -0.637133   -0.009432
H       0.964884    1.569844    0.004345
H      -2.154568   -0.167881    0.011892
H      -1.948942   -3.853229   -0.010011
H       2.101022   -2.496849   -0.024882
