20

C      -0.686758    1.252724   -0.209421
C      -0.355960   -0.201604   -0.474288
C       0.486631   -0.789703   -1.569243
C       1.759237   -0.003450   -1.926026
C       1.672077    1.286156   -2.734441
C       2.164888    0.016082   -0.413440
C       0.947387   -0.872592   -0.086173
C       0.990921   -2.010414    0.770746
N       1.037154   -2.933269    1.469539
H      -1.420578    1.618240   -0.935488
H      -1.123846    1.358680    0.788801
H       0.183895    1.908380   -0.257247
H      -1.197325   -0.859234   -0.262570
H       0.100169   -1.609269   -2.164704
H       2.438440   -0.689533   -2.442020
H       1.014603    2.027495   -2.274987
H       2.663673    1.738953   -2.843103
H       1.290307    1.083865   -3.741151
H       3.115940   -0.481186   -0.220317
H       2.174787    0.989606    0.084523
