15

C       0.065101    1.575637    0.003167
C       0.042385    0.029311   -0.000454
C       0.679298   -0.497575   -1.217816
N       1.166130   -0.899703   -2.185006
C       0.676164   -0.552113    1.232131
C       0.229660   -1.410736    2.186332
C       1.333015   -1.511128    3.076381
N       2.348300   -0.779045    2.692687
O       1.931395   -0.164634    1.514151
H       1.092809    1.941373    0.033817
H      -0.420721    1.961791   -0.895359
H      -0.465897    1.946572    0.883082
H      -0.998323   -0.312950   -0.012341
H      -0.728740   -1.898426    2.246078
H       1.419705   -2.092592    3.983300
