15

C      -0.003132    1.432628   -0.138014
N       0.003804   -0.019491   -0.172705
C      -1.050427   -0.638623    0.125324
O      -2.204978    0.037599    0.482091
C      -3.347302   -0.644003    0.805176
C      -3.407867   -1.973419    0.793438
N      -2.282621   -2.714864    0.443713
C      -1.071342   -2.156184    0.097311
O      -0.110473   -2.824074   -0.202512
H       0.984366    1.801427   -0.421632
H      -0.747827    1.849767   -0.828397
H      -0.248053    1.811862    0.862685
H      -4.165347    0.011127    1.062058
H      -4.305372   -2.517482    1.047142
H      -2.312436   -3.723309    0.429568
