25

C       0.216723    1.092788   -0.490811
C      -0.285851   -0.326943   -0.219440
C      -1.618130   -0.361705    0.531701
C      -2.183012   -1.784623    0.681349
C      -2.822522   -2.353358   -0.593625
C      -3.315589   -3.787676   -0.399828
O      -3.870684   -1.508832   -1.072122
O      -1.378727    0.218804    1.814458
C      -2.503184    0.820793    2.406396
H       1.187682    1.078946   -0.995346
H      -0.482693    1.643651   -1.129775
H       0.324973    1.644862    0.446062
H      -0.396195   -0.870569   -1.164775
H       0.452288   -0.877491    0.377776
H      -2.356169    0.248444   -0.011347
H      -1.385915   -2.455002    1.026268
H      -2.946993   -1.783947    1.471207
H      -2.086054   -2.344489   -1.406044
H      -2.490682   -4.459357   -0.141420
H      -4.051931   -3.838751    0.412393
H      -3.789800   -4.152628   -1.314909
H      -4.579235   -1.527122   -0.418647
H      -2.913134    1.626880    1.777844
H      -3.313924    0.103935    2.610772
H      -2.178365    1.248054    3.358954
