16

C       0.007145    1.519819    0.109994
C      -0.020715    0.022095    0.046959
C       1.147907   -0.827146   -0.336306
C       0.582853   -0.987539    1.073959
O       1.333299   -0.718774    2.193541
C      -0.703419   -1.759997    1.024837
O      -1.187922   -2.605062    1.722687
C      -1.288363   -0.839867   -0.085703
H       0.970730    1.874504    0.488248
H      -0.148728    1.960665   -0.881234
H      -0.776760    1.901782    0.772515
H       1.056149   -1.616541   -1.078286
H       2.111119   -0.323981   -0.327196
H       2.054930   -1.354788    2.248851
H      -2.199186   -0.352962    0.276705
H      -1.481269   -1.289209   -1.064295
