20

C      -0.064707    1.503369    0.222773
N      -0.011126    0.054902    0.038407
C       0.920095   -0.591241    0.944805
C      -1.308724   -0.522784   -0.020304
C      -2.145598   -1.018513    1.181783
C      -1.824152   -1.974663    0.078887
C      -2.823331   -1.747315   -1.066709
C      -2.259490   -0.307480   -1.167488
O      -2.394931    0.574972   -1.968446
H       0.935342    1.921623    0.071801
H      -0.738180    1.936486   -0.519137
H      -0.410798    1.794443    1.231583
H       0.679062   -0.440658    2.014051
H       0.954383   -1.666307    0.746423
H       1.922024   -0.185089    0.774003
H      -1.563330   -1.118493    2.091865
H      -3.169085   -0.689102    1.341547
H      -1.241809   -2.874924    0.224200
H      -2.591346   -2.294603   -1.985242
H      -3.884299   -1.872205   -0.829191
