17

O       0.045845    1.349534   -0.102496
C       0.068278   -0.019764   -0.025177
C      -0.238035   -0.881534   -1.246691
C       0.441152   -2.236303   -1.034263
C       0.043487   -2.073373    0.462244
C      -1.071273   -1.036364    0.012593
C       0.884975   -0.869106    0.912537
C       2.200306   -0.716034    1.523747
O       0.984016   -0.483110    2.274916
H      -0.107226    1.681287    0.790990
H      -0.530588   -0.404134   -2.173553
H      -0.118838   -3.040578   -1.519103
H       1.508856   -2.336714   -1.261723
H      -0.095621   -2.920524    1.129052
H      -2.128063   -0.939630    0.208598
H       2.767648   -1.593553    1.831078
H       2.794160    0.174126    1.321723
