17

N      -0.097957    1.286054   -0.237105
C       0.085395   -0.040740   -0.079247
O       1.159220   -0.610638    0.004571
C      -1.271621   -0.770834   -0.015501
O      -2.328404   -0.153974   -0.105568
N      -1.202249   -2.099807    0.142228
C      -0.142568   -3.113004    0.278635
C      -1.257471   -4.193083    0.388989
C      -2.307617   -3.054175    0.236325
H       0.693147    1.903001   -0.298844
H      -1.045665    1.625955   -0.293831
H       0.509271   -3.181125   -0.594782
H       0.482351   -2.973097    1.163057
H      -1.262724   -4.926175   -0.417910
H      -1.291474   -4.715571    1.345250
H      -2.957816   -2.878906    1.099195
H      -2.927301   -3.087838   -0.665313
