18

C      -0.050789    1.402789    0.090331
O      -0.046327    0.026617   -0.217695
C      -1.289663   -0.609917   -0.033230
C      -1.222561   -2.024983   -0.634555
C      -2.374147   -2.785622    0.034839
C      -2.541142   -2.124575    1.409385
O      -3.225174   -2.535284    2.309508
C      -1.694717   -0.846978    1.434783
H       0.942147    1.790151   -0.149853
H      -0.798548    1.949339   -0.505662
H      -0.253737    1.591984    1.154679
H      -2.080524   -0.028971   -0.539057
H      -1.273893   -2.011691   -1.725102
H      -0.256540   -2.459224   -0.353886
H      -3.319600   -2.649227   -0.506830
H      -2.221299   -3.862729    0.134656
H      -0.789775   -1.054703    2.022337
H      -2.229633   -0.031099    1.924918
