16

N       0.115917    1.373045    0.266397
C      -0.067094   -0.030985   -0.008365
C      -1.476141   -0.496629   -0.451581
O      -0.899509   -1.138423   -1.635882
C       0.353822   -0.645879   -1.343026
N       1.417582   -0.672621   -2.007276
C       1.388720   -1.321539   -3.315927
C       1.995691   -0.455404   -4.334556
N       2.460574    0.217772   -5.149728
H       1.069954    1.549167    0.564311
H      -0.028481    1.924624   -0.574813
H       0.312856   -0.611588    0.836642
H      -1.991611   -1.223621    0.178281
H      -2.149959    0.314884   -0.737714
H       1.976385   -2.246886   -3.269283
H       0.379196   -1.594022   -3.650214
