18

C       0.205411    1.626308    0.061161
C       0.105398    0.107985    0.029719
C       0.577614   -0.707268   -1.223890
C       1.315423   -1.727967   -0.299503
C       2.774748   -2.113684   -0.545459
O       3.317317   -2.765919    0.583905
C       1.128636   -0.708902    0.828045
O       1.735500   -0.518836    1.850217
H       1.206140    1.960195   -0.231336
H      -0.517896    2.083733   -0.620937
H       0.010082    2.004127    1.069073
H      -0.902009   -0.217144    0.320898
H      -0.206606   -1.108992   -1.865951
H       1.279609   -0.132271   -1.835241
H       0.720876   -2.629811   -0.116691
H       2.858854   -2.808075   -1.388285
H       3.349049   -1.209424   -0.808995
H       3.190092   -2.169328    1.333980
