14

N      -0.089380    1.312753    0.009688
C      -0.018336    0.058194    0.002868
O       1.099839   -0.724444   -0.006424
C       0.764558   -2.136773   -0.012169
C      -0.730472   -2.132469   -0.005116
C      -1.888068   -2.855134   -0.003384
N      -2.973151   -1.991299    0.006222
C      -2.483964   -0.774608    0.010150
N      -1.114900   -0.812016    0.003505
H       0.838854    1.730625    0.007498
H       1.205786   -2.589154   -0.906452
H       1.214158   -2.598384    0.873183
H      -2.024621   -3.924703   -0.008257
H      -3.036314    0.150903    0.017526
