18

O       0.090866    1.348496    0.117991
C       0.074371   -0.046572    0.101247
C      -1.373733   -0.541726    0.034227
O      -2.287123    0.276812    0.006714
N      -1.587620   -1.874018    0.007755
C      -0.560311   -2.918631    0.040276
C      -1.386710   -4.175607   -0.008152
C      -2.686944   -3.903736   -0.059786
C      -2.946667   -2.424121   -0.053856
H      -0.850346    1.596068    0.082946
H       0.632081   -0.442026   -0.763830
H       0.557018   -0.462394    1.001258
H       0.129227   -2.841685   -0.813607
H       0.053930   -2.860779    0.951296
H      -0.932531   -5.157868    0.000005
H      -3.490184   -4.627885   -0.101660
H      -3.544167   -2.092491    0.805868
H      -3.472430   -2.072729   -0.951653
