18

C      -0.114796    1.511786   -0.051592
C       0.106752   -0.004159    0.047045
C       0.715428   -0.568560   -1.195838
C       0.027316   -1.002266   -2.452367
C       0.960293   -1.962080   -1.736720
C       2.395985   -1.486051   -1.965126
O       2.062723   -0.146821   -1.526073
C       3.385859   -2.109086   -1.081414
N       4.161615   -2.620595   -0.394913
H       0.830652    2.028200   -0.240203
H      -0.802533    1.758193   -0.866654
H      -0.535388    1.902476    0.879088
H       0.760235   -0.231888    0.897272
H      -0.845025   -0.517534    0.227630
H      -1.023820   -1.254000   -2.349849
H       0.306597   -0.565577   -3.407301
H       0.671647   -2.936160   -1.368506
H       2.770418   -1.500711   -2.995712
