21

C       0.131783    1.341013   -0.215196
O       0.173784   -0.060844   -0.117755
C       0.505055   -0.509710    1.181009
C       0.530016   -2.015290    1.158046
N       1.824749   -2.672539    0.898406
C       1.159102   -2.875212    2.200390
C       1.886329   -2.284003    3.393347
C       0.520152   -4.223707    2.474429
H       1.106987    1.798044    0.017576
H      -0.136964    1.590776   -1.244674
H      -0.619220    1.777768    0.463558
H       1.484612   -0.114156    1.487585
H      -0.245257   -0.150864    1.908686
H      -0.347567   -2.432512    0.665271
H       1.693827   -3.484060    0.299168
H       2.400766   -1.358240    3.131287
H       1.190982   -2.078592    4.215167
H       2.639541   -2.988998    3.763326
H       1.280875   -4.962164    2.754739
H      -0.197857   -4.162711    3.300118
H      -0.011970   -4.600010    1.594806
