21

C       0.528161   -1.170764    1.117173
C      -0.251644   -0.829385   -0.168196
C       0.701208   -0.472766   -1.338514
C       0.034715    0.130181   -2.566543
C      -0.548625    1.518518   -2.387224
C       0.579439   -0.254872   -3.897219
N      -0.742958   -0.738826   -3.468707
C      -1.124850   -1.950672   -0.533728
N      -1.783152   -2.857462   -0.819106
H       1.203090   -2.014978    0.949285
H       1.124643   -0.307996    1.426574
H      -0.150378   -1.433873    1.932116
H      -0.899679    0.030505    0.037909
H       1.437997    0.240512   -0.948332
H       1.256136   -1.375779   -1.617994
H       0.224909    2.234868   -2.087576
H      -0.996061    1.860704   -3.322895
H      -1.337285    1.533268   -1.626725
H       0.562289    0.460389   -4.715557
H       1.410854   -0.955040   -3.930856
H      -0.695824   -1.710963   -3.174574
