19

C       0.043649    1.597287    0.160368
C       0.046765    0.063305    0.039005
O       0.811035   -0.506162    1.070368
C      -1.388193   -0.496120    0.153075
O      -1.709870   -1.010906    1.220270
N      -2.252581   -0.382685   -0.891618
C      -3.625710   -0.839073   -0.729361
C      -1.936716    0.178310   -2.191739
H       1.077174    1.951460    0.188958
H      -0.470197    2.087532   -0.672157
H      -0.444966    1.892116    1.093911
H       0.498062   -0.230201   -0.917850
H       0.148630   -0.876669    1.679944
H      -4.325994   -0.010323   -0.891141
H      -3.854494   -1.628570   -1.455473
H      -3.744615   -1.226631    0.280332
H      -0.871238    0.369240   -2.297018
H      -2.235534   -0.522495   -2.980871
H      -2.476184    1.120340   -2.357809
