23

C       0.055546    1.585439    0.007055
C      -0.032029    0.058033    0.003284
O      -1.380227   -0.365593    0.228481
C       0.419246   -0.538343   -1.332912
C       0.792187   -2.025491   -1.285243
C      -0.376651   -2.958072   -1.005410
C       1.732063   -2.474060   -2.438978
C       2.804356   -2.597899   -1.342148
O       1.867343   -2.233628   -0.311281
H       1.088786    1.923268   -0.123087
H      -0.555854    2.008354   -0.796920
H      -0.308557    1.990956    0.958278
H       0.625706   -0.342740    0.788654
H      -1.640402   -0.063591    1.104391
H      -0.370105   -0.375093   -2.077605
H       1.302171    0.017135   -1.668665
H      -1.130037   -2.869430   -1.795995
H      -0.029309   -3.994933   -0.969838
H      -0.858099   -2.705625   -0.059653
H       1.446164   -3.414743   -2.913153
H       1.920074   -1.725925   -3.211577
H       3.217476   -3.601414   -1.183729
H       3.636910   -1.885801   -1.412033
