14

O       0.077538    1.447872    0.027571
C      -0.006594    0.072548   -0.029344
C      -1.413975   -0.680774   -0.092960
C      -2.420239    0.116509   -0.761694
N      -3.180708    0.763887   -1.344954
C      -0.750563   -1.747602   -1.080012
O      -1.452560   -2.295491   -2.132993
C       0.295956   -0.652360   -1.353117
O       0.792913   -0.267307   -2.371948
H      -0.144591    1.810629   -0.839291
H       0.560983   -0.342310    0.808940
H      -1.780181   -1.077351    0.853323
H      -0.346897   -2.563645   -0.473292
H      -1.550544   -1.628251   -2.824058
