20

C      -0.194523    1.507929   -0.075039
C      -0.005807   -0.003418   -0.006041
C       1.209565   -0.537271   -0.808766
C       1.316116   -2.028495   -0.442066
C       2.393525   -1.830709    0.554731
C       2.156960   -0.305691    0.439260
C       0.808531   -0.495977    1.216895
C       0.527773   -0.109983    2.639945
N       0.984711   -2.006348    1.024942
H       0.748287    2.041128    0.092094
H      -0.573724    1.809163   -1.057113
H      -0.910492    1.854388    0.677797
H      -0.955803   -0.524232   -0.173624
H       1.447742   -0.213011   -1.820654
H       1.027088   -2.904046   -1.009960
H       3.213601   -2.457146    0.884014
H       2.865280    0.511737    0.543029
H       0.485947    0.977738    2.756154
H      -0.430106   -0.530164    2.966845
H       1.305055   -0.496110    3.307479
