16

O       0.090010    1.356353    0.024450
C       0.063069   -0.017583    0.027245
C       0.742928   -0.918451    1.036302
N       0.081999   -1.946298    0.113149
C      -1.154022   -1.019075   -0.039968
C      -1.051606   -1.125723   -1.548623
C      -1.809898   -1.738995   -2.624980
O      -1.690209   -0.299102   -2.495853
C       0.399252   -1.051726   -1.115681
H      -0.423835    1.674252   -0.728264
H       1.835620   -0.969134    1.031410
H       0.353043   -0.937962    2.058152
H      -2.004562   -1.106101    0.635783
H      -1.292306   -2.167402   -3.481203
H      -2.805185   -2.135597   -2.433501
H       1.327964   -1.176164   -1.672139
