18

C      -0.012617    1.533051    0.001908
C      -0.016532    0.026847    0.045576
C       1.230881   -0.762351   -0.303967
C       0.696280   -0.778982    1.109835
O       1.415975   -0.252935    2.165532
C      -0.202400   -1.932103    1.454800
O      -0.036932   -2.672602    2.405311
N      -1.219599   -1.942359    0.545027
C      -1.326673   -0.715824   -0.241189
H       0.943188    1.924772    0.359672
H      -0.171460    1.904336   -1.017040
H      -0.800717    1.948739    0.639355
H       1.160482   -1.651506   -0.924196
H       2.136517   -0.178404   -0.432905
H       1.397122   -0.942861    2.846493
H      -1.974629   -2.603827    0.630835
H      -2.189600   -0.116445    0.080348
H      -1.447919   -0.938046   -1.308619
