18

C       0.030793    1.103595    0.378207
O      -0.173572    0.002338   -0.490494
C      -1.376900   -0.651218   -0.254472
C      -1.539931   -2.026171   -0.848997
C      -1.389944   -1.865362    0.633930
C      -0.203276   -2.355935    1.465169
N      -0.793949   -2.673394    2.779014
C      -2.040796   -2.495000    2.646951
O      -2.544764   -2.073782    1.458417
H       1.001682    1.534697    0.125074
H      -0.747424    1.868881    0.241150
H       0.034295    0.798548    1.433705
H      -2.260424   -0.011002   -0.229032
H      -2.514445   -2.286794   -1.246323
H      -0.690713   -2.441396   -1.382732
H       0.264501   -3.255105    1.046523
H       0.581511   -1.600080    1.564281
H      -2.787737   -2.654031    3.416505
