18

O       0.325764    1.018014   -0.056616
C      -0.132576   -0.315166    0.044841
C      -1.661936   -0.407545   -0.003950
N      -2.213257    0.080368   -1.260339
C      -2.184336   -0.779351   -2.444364
C      -2.933139   -2.021732   -2.264623
C      -3.534998   -3.049808   -2.108410
C      -2.815915    1.305926   -1.354157
O      -3.285914    1.781016   -2.365881
H       0.075669    1.349457   -0.925675
H       0.313875   -0.958155   -0.730129
H       0.213589   -0.690274    1.013390
H      -1.987828   -1.442186    0.154304
H      -2.075423    0.202690    0.804889
H      -2.612683   -0.183441   -3.255919
H      -1.147383   -1.013914   -2.717946
H      -4.079043   -3.953660   -1.984407
H      -2.819455    1.832286   -0.381431
