19

C      -0.046948    1.420366    0.198992
C      -0.031247   -0.025970    0.036862
C      -0.012360   -1.223239   -0.090327
C       0.004739   -2.680911   -0.259657
O       0.761164   -3.329199    0.775290
C      -0.090760   -4.164071    1.549657
C      -1.433090   -4.141116    0.862715
C      -2.588995   -4.953158    1.348746
C      -1.370742   -3.303672   -0.167187
H       0.500137    1.719607    1.099888
H       0.420749    1.923952   -0.654235
H      -1.069878    1.801867    0.291670
H       0.489240   -2.913254   -1.221369
H       0.338827   -5.176816    1.595423
H      -0.158746   -3.795273    2.587054
H      -2.845569   -4.693908    2.383618
H      -3.476382   -4.799012    0.730049
H      -2.350955   -6.024136    1.344367
H      -2.168660   -3.046998   -0.851707
