18

C      -0.147406    1.351787   -0.046429
N       0.036773   -0.091979    0.026438
C       1.418305   -0.559353   -0.186049
C       0.819646   -0.566703    1.181412
C       0.681084   -2.071228    1.454274
C       2.066216   -2.590800    0.901496
C       1.530753   -2.060801   -0.486486
C       0.180823   -2.565827    0.076199
O      -0.687404   -3.285624   -0.307780
H       0.713475    1.928037    0.333593
H      -0.318522    1.639108   -1.088279
H      -1.030146    1.630362    0.537054
H       2.180945    0.146270   -0.498084
H       1.104926    0.133059    1.959769
H       0.252078   -2.411049    2.393972
H       2.953273   -2.088277    1.292552
H       2.178454   -3.676030    0.944808
H       1.931535   -2.390440   -1.442137
