15

C      -0.094226   -1.240593   -0.137867
C      -0.046874   -0.045920   -0.018136
C       0.005359    1.404640    0.077210
O      -0.494446    1.898365    1.332211
C       0.579120    2.748639    1.819251
O       1.115631    3.302895    0.639275
C       1.455620    2.037555    0.054625
C       2.235618    1.357552    1.168429
C       1.689071    1.818246    2.294551
H      -0.138486   -2.297262   -0.235374
H      -0.581584    1.857114   -0.730481
H       0.164773    3.502179    2.484704
H       1.905148    2.149873   -0.928620
H       2.967560    0.575198    1.032872
H       1.862305    1.515626    3.317052
