18

C      -0.077064    1.418333   -0.163042
C       0.000483   -0.096456   -0.055203
O       1.019425   -0.730186   -0.259340
N      -1.159901   -0.711593    0.331060
C      -2.578110   -0.304630    0.233231
C      -2.935580   -1.796047    0.077169
O      -4.007739   -2.387843    0.706597
C      -2.181894   -2.416808   -1.073207
C      -1.462767   -2.128356    0.227156
H       0.935349    1.820618   -0.126340
H      -0.528054    1.704829   -1.120076
H      -0.681461    1.858680    0.635032
H      -2.959953    0.116049    1.169598
H      -2.821259    0.361625   -0.602329
H      -4.723023   -2.483379    0.068425
H      -2.412507   -3.467051   -1.225082
H      -1.940073   -1.857888   -1.973385
H      -0.942793   -2.870810    0.816690
