18

C       0.313904    1.056472    0.478925
N      -0.127497    0.038769   -0.477985
C      -1.442907   -0.557157   -0.220570
C      -2.146958   -0.873594   -1.541086
C      -1.214219   -1.883674    0.573054
O      -0.182554   -2.626200   -0.020187
C      -0.934292   -1.615764    2.005228
N      -0.721518   -1.402108    3.121289
H       1.281675    1.451367    0.158251
H      -0.392236    1.896685    0.574872
H       0.444041    0.611656    1.467653
H      -0.107391    0.420059   -1.415543
H      -2.076545    0.110733    0.381806
H      -1.553031   -1.580171   -2.128259
H      -3.129217   -1.319523   -1.362705
H      -2.293946    0.038439   -2.128245
H      -2.129000   -2.485911    0.536015
H       0.449123   -1.941152   -0.310526
