19

C      -0.141673    1.511986    0.015297
C       0.003109   -0.004975   -0.070306
O      -1.213139   -0.613570   -0.419573
C       1.173273   -0.476827   -0.964059
C       2.069054   -0.616175    0.292034
C       0.775254   -0.610281    1.186993
N       0.692564    0.144528    2.429528
C       0.332708   -1.980029    1.454453
N       0.016621   -3.066478    1.689293
H       0.818869    2.013897    0.171508
H      -0.564612    1.878547   -0.924224
H      -0.806429    1.795027    0.837951
H      -1.890105   -0.335209    0.208299
H       0.936100   -1.445374   -1.408440
H       1.501996    0.209615   -1.746380
H       2.716790   -1.490577    0.362639
H       2.661416    0.281832    0.489567
H       1.106822   -0.376726    3.195919
H       1.211736    1.012094    2.343063
