21

C      -0.635832    1.160034    0.027555
C       0.139630   -0.140999   -0.108711
C       1.539658   -0.104492   -0.796506
C       2.107634   -1.021690    0.326036
C       0.831483   -0.743360    1.128592
C       0.759418   -0.226728    2.528300
C       0.210090   -1.613468    2.205186
C      -1.202883   -1.848356    2.197767
C      -2.390262   -2.045416    2.166589
H      -0.024567    1.938262    0.497933
H      -0.950144    1.529265   -0.954930
H      -1.536629    1.021409    0.634826
H      -0.498263   -0.900446   -0.575737
H       1.597723   -0.481088   -1.820056
H       1.976984    0.897807   -0.768671
H       2.192564   -2.067796    0.015838
H       3.052908   -0.716376    0.783039
H       1.672819   -0.185102    3.113516
H       0.035611    0.547274    2.759409
H       0.814605   -2.452565    2.540976
H      -3.436792   -2.222281    2.151882
