15

O      -0.108530   -0.026056    0.124819
C       0.003989    1.163357   -0.054163
C       1.307697    1.883630   -0.036302
C       2.620560    1.173049    0.210955
C       3.541798    2.138253    0.150851
C       2.756717    3.406524   -0.131592
C       1.583842    3.030418   -1.098199
O       0.658528    3.950839   -0.432339
C       1.405304    3.309911    0.653125
H      -0.875735    1.811190   -0.247265
H       2.724816    0.113503    0.390687
H       4.613491    2.067799    0.271357
H       3.238832    4.376597   -0.237257
H       1.555831    2.968457   -2.188667
H       1.161276    3.586071    1.681682
