18

C      -0.255546    1.424341    0.062804
N       0.032203   -0.000982    0.102493
C       1.393019   -0.421283   -0.207351
C       0.857357   -0.564678    1.177028
C       1.424932    0.237445    2.329254
C       0.433865    0.403337    3.477592
O       1.106124    1.071089    4.534140
H       0.580415    2.077031    0.359966
H      -0.535419    1.692321   -0.961315
H      -1.109830    1.643462    0.712040
H       1.495672   -1.282044   -0.863720
H       2.141673    0.356397   -0.362100
H       0.512550   -1.556224    1.473297
H       2.310243   -0.281075    2.717748
H       1.765214    1.224716    2.003973
H      -0.444223    0.974667    3.137422
H       0.071640   -0.588078    3.796187
H       0.488341    1.180394    5.262731
