20

C      -0.425626    1.421478    0.097436
C       0.094373   -0.008310   -0.010439
C       1.218031   -0.236649   -1.029350
O       1.764793   -1.507255   -0.698151
C       1.634667   -1.715478    0.704925
C       0.744866   -0.584333    1.260821
O       1.548950    0.429949    1.874446
C       1.591805    0.481220    3.218732
N       2.359983    1.297469    3.798091
H       0.374887    2.109656    0.377462
H      -0.846060    1.749524   -0.858392
H      -1.216049    1.500793    0.850729
H      -0.728786   -0.685361   -0.271877
H       0.867460   -0.280209   -2.064347
H       1.977689    0.556993   -0.949218
H       1.185479   -2.702715    0.869189
H       2.615335   -1.691887    1.196713
H       0.008641   -0.948830    1.985678
H       0.905299   -0.227306    3.704555
H       2.252245    1.218276    4.807000
