20

C      -0.052568    1.492153    0.080859
C       0.034921   -0.018565   -0.057638
C       0.834816   -0.493828   -1.260330
C       0.864705   -2.015832   -1.251366
N       1.144527   -2.526053    0.082598
C       1.494183   -3.932512    0.170342
C       1.082639   -1.792912    1.244102
O       1.392604   -2.222814    2.330317
O       0.661309   -0.502430    1.142876
H       0.948460    1.931911    0.121811
H      -0.590119    1.921139   -0.770138
H      -0.581985    1.758766    0.998883
H      -0.979836   -0.442362   -0.106058
H       0.388737   -0.132926   -2.191860
H       1.850309   -0.087316   -1.192399
H      -0.096459   -2.416445   -1.611292
H       1.635448   -2.390708   -1.937335
H       2.411873   -4.140714   -0.394701
H       1.651295   -4.184439    1.217183
H       0.690752   -4.557405   -0.241550
