12

N       0.202106    1.343745    0.005599
C       0.039607    0.088562    0.002078
N      -1.208183   -0.522579    0.012105
C      -2.452637    0.039930    0.026981
N      -3.563778   -0.652408    0.035397
C      -4.491386    0.352791    0.048732
N      -4.020975    1.568798    0.049198
O      -2.617322    1.358346    0.034018
H       1.193742    1.572068   -0.003448
H       0.830634   -0.669581   -0.009012
H      -1.235993   -1.530083    0.008276
H      -5.556959    0.172881    0.058810
