19

C       0.027195    1.570223    0.004104
C       0.033018    0.041328    0.044363
C       0.697899   -0.628657   -1.188018
C       1.259888   -1.938345   -0.646906
O       1.347211   -3.004359   -1.215569
C       1.553487   -1.780510    0.804228
O       1.714638   -2.946238    1.525518
C       2.275157   -0.515751    1.220440
C       0.769771   -0.552092    1.252628
H       1.047813    1.967756   -0.017613
H      -0.496152    1.939951   -0.883803
H      -0.473664    1.984616    0.885074
H      -1.005423   -0.310140    0.091366
H       0.009791   -0.816290   -2.014130
H       1.519149   -0.017246   -1.583733
H       1.681642   -3.653389    0.862381
H       2.777496   -0.607173    2.177220
H       2.802571    0.088241    0.488516
H       0.281535   -0.548774    2.220800
