13

O       0.170566    1.386654   -0.163911
C       0.085682    0.003926   -0.010677
C       0.177693   -0.544198    1.439512
N      -1.299968   -0.650952    1.465043
C      -1.367450   -0.610699   -0.010991
C      -2.445306    0.207131   -0.561848
N      -3.286453    0.869698   -0.996609
H      -0.451713    1.807590    0.441672
H       0.766392   -0.431737   -0.742047
H       0.713730   -1.501710    1.491392
H       0.595274    0.141611    2.183355
H      -1.696487   -1.475237    1.901472
H      -1.378091   -1.592959   -0.503984
