17

C      -0.035086    1.514838    0.110501
C      -0.026937    0.026559    0.025846
C      -0.002904   -0.740088   -1.083969
C      -0.019017   -2.232896   -0.777762
C       0.025577   -2.259672    0.744350
N       1.250355   -1.661873    1.306652
C      -0.002797   -0.853364    1.232201
C       0.052320   -0.244142   -2.412855
N       0.086541    0.141408   -3.505843
H       0.861535    1.873450    0.630799
H      -0.072066    1.977028   -0.878228
H      -0.897243    1.866031    0.690977
H      -0.926884   -2.708684   -1.166810
H       0.839083   -2.748740   -1.221041
H      -0.463324   -3.062615    1.284458
H       1.360184   -1.994491    2.263557
H      -0.484825   -0.544756    2.153660
