18

C       0.048532    1.596897    0.048321
C       0.067218    0.054085    0.006254
N       0.705787   -0.444212   -1.204298
C       1.960905   -0.961683   -1.325029
O       2.395864   -1.399666   -2.371548
C       2.807735   -0.930167   -0.045834
O       3.534935    0.307689   -0.118743
C       1.974507   -0.991359    1.206881
C       0.736485   -0.507550    1.229979
H       1.076286    1.968600    0.042854
H      -0.478638    1.998529   -0.822777
H      -0.457857    1.957126    0.949591
H      -0.972440   -0.301769   -0.007438
H       0.187665   -0.398276   -2.069794
H       3.499747   -1.778417   -0.113385
H       4.026730    0.402983    0.704170
H       2.438591   -1.384961    2.107927
H       0.159957   -0.469414    2.149600
