10

N       0.076423   -3.692659   -0.018888
C       0.047267   -2.531389   -0.011963
C       0.010433   -1.167890   -0.003836
C      -0.031395    0.039312    0.003391
C      -0.051529    1.449234    0.011478
N      -1.171558    2.178241    0.030197
N      -0.670140    3.397253    0.030391
N       0.658289    3.461907    0.013387
N       1.072885    2.229141    0.001136
H      -1.250014    4.224886    0.042566
