17

O       0.006443    1.415495   -0.072601
C       0.038837    0.003763   -0.046487
C       0.753946   -0.605165    1.187234
C       0.109680   -1.988830    1.414054
C      -1.292041   -1.830289    0.856233
O      -1.959042   -0.613405    1.255868
C      -1.339958   -0.643575   -0.028670
C      -2.199892   -2.986242    0.629727
O      -1.846089   -4.136878    0.691005
H      -0.480734    1.704490    0.708165
H       0.543456   -0.291751   -0.973918
H       1.835601   -0.653274    1.050026
H       0.561280    0.042188    2.047689
H       0.613669   -2.778714    0.847977
H       0.106760   -2.295237    2.463630
H      -2.012915   -0.552468   -0.878166
H      -3.246203   -2.692101    0.395805
