13

C      -0.006851    1.401201   -0.005201
O       0.004817   -0.033628   -0.004391
C       0.598228   -0.603971   -1.041688
N       1.160004    0.019378   -2.040808
O       1.633874   -0.985375   -2.861011
N       1.361183   -2.218107   -2.362335
C       0.719123   -2.024282   -1.233934
C       0.253009   -3.060177   -0.397398
C      -0.157016   -3.918107    0.337862
H       1.015114    1.791176   -0.005761
H      -0.535025    1.778075   -0.885819
H      -0.527005    1.691937    0.906690
H      -0.516485   -4.681531    0.983262
