18

C       0.167539    1.451418    0.010211
C      -0.007533   -0.034672   -0.036409
C      -0.106651   -0.805842   -1.124051
C      -0.287128   -2.273265   -0.813684
C      -0.136720   -2.322513    0.714023
O       1.226103   -2.559523    1.142468
C       1.292208   -1.286364    1.815753
C      -0.074254   -0.860324    1.225986
H       1.087159    1.729051    0.541182
H       0.213313    1.884404   -0.992591
H      -0.658881    1.930810    0.550819
H      -0.068826   -0.429123   -2.141579
H      -1.264602   -2.647365   -1.147649
H       0.474416   -2.909015   -1.281575
H      -0.829278   -3.012875    1.207879
H       1.301646   -1.403449    2.907997
H       2.167324   -0.700546    1.509116
H      -0.817965   -0.510499    1.947477
