21

C       0.002500    1.532475   -0.047968
C       0.022187    0.076316   -0.044870
C       0.050307   -1.127515   -0.042380
C       0.046092   -2.586348   -0.036426
C      -1.370161   -3.184977    0.080898
C      -1.362157   -4.716505    0.085381
C      -2.772792   -5.317367    0.213658
C      -2.755794   -6.824509    0.104597
O      -3.194803   -7.585308    0.927599
H       0.980127    1.944525    0.226067
H      -0.256397    1.927151   -1.036816
H      -0.731413    1.923265    0.665683
H       0.522452   -2.961399   -0.952732
H       0.663509   -2.955144    0.793969
H      -1.839975   -2.811672    0.998193
H      -1.983331   -2.818403   -0.750945
H      -0.892341   -5.083434   -0.837545
H      -0.738442   -5.079588    0.912434
H      -3.245245   -5.039802    1.160473
H      -3.399830   -4.934371   -0.605136
H      -2.280510   -7.207180   -0.830620
