25

C       0.097151    1.472636   -0.051153
O      -0.082471    0.078763   -0.114994
C       0.660459   -0.576978   -1.139010
C       2.137050   -0.724301   -0.760313
C      -0.011453   -1.933485   -1.368060
C      -1.445613   -1.832135   -1.867455
C      -1.719645   -1.348181   -3.322902
C      -2.854824   -2.403195   -3.416438
C      -2.214877   -3.139328   -2.209170
H       1.118906    1.758863    0.238884
H      -0.133588    1.957911   -1.013012
H      -0.593155    1.852321    0.706894
H       0.586481    0.018468   -2.066164
H       2.235401   -1.314867    0.156219
H       2.688436   -1.230013   -1.559389
H       2.612467    0.246736   -0.594226
H       0.590949   -2.504630   -2.086828
H       0.013059   -2.490118   -0.421408
H      -2.025977   -1.228924   -1.163190
H      -1.982205   -0.298294   -3.476567
H      -0.885052   -1.597421   -3.988239
H      -3.826963   -1.973277   -3.158121
H      -2.960205   -2.956069   -4.353016
H      -1.529437   -3.928150   -2.538510
H      -2.879748   -3.555473   -1.447778
