18

C      -0.665253    1.583816    0.313601
C      -0.141336    0.186443    0.090400
C      -1.086331   -1.016918    0.326146
O      -0.099059   -1.698850    1.134523
C       0.840068   -0.624611    0.990259
C       1.740355   -0.788342   -0.254741
N       0.795638    0.036308   -1.054113
C       3.113693   -0.148456   -0.189053
O       3.832436   -0.195072    0.775720
H       0.153042    2.308625    0.308021
H      -1.362868    1.863468   -0.485204
H      -1.197737    1.658212    1.266920
H      -1.987709   -0.791457    0.910398
H      -1.371599   -1.587748   -0.567613
H       1.299360   -0.314462    1.929526
H       1.848176   -1.841299   -0.548200
H       0.405271   -0.405745   -1.880271
H       3.397672    0.400483   -1.115737
