19

C       0.086117    1.589289   -0.054662
C      -0.028714    0.057871    0.023590
C       0.745225   -0.694624   -1.125029
N       2.020580   -1.256436   -0.569288
C       1.789812   -1.180903    0.819107
C       0.656306   -0.537623    1.228220
C       0.609838   -0.637095    2.648858
C       1.727102   -1.347085    3.034655
N       2.452686   -1.684243    1.897299
H       1.136400    1.901409   -0.053901
H      -0.386382    1.978407   -0.963909
H      -0.398335    2.061712    0.805829
H      -1.089253   -0.212374   -0.038429
H       0.140851   -1.534393   -1.482736
H       0.961831   -0.049188   -1.980981
H       2.817659   -0.693231   -0.855584
H      -0.139264   -0.245495    3.320626
H       2.070285   -1.649441    4.010591
H       3.282702   -2.249791    1.878990
