21

C      -0.023021    1.629994   -0.010513
C       0.152645    0.113123    0.056313
C       1.383813   -0.729145   -0.209232
C       1.476250   -1.803811   -1.254817
C       2.664959   -0.147602    0.472057
O       2.364724    1.080285    1.150423
C       2.024446   -0.163132    1.779977
C       0.706618   -0.746428    1.174250
C      -0.051442   -1.842934    1.866887
H       0.762772    2.107150   -0.598863
H      -0.985253    1.869527   -0.475911
H      -0.005570    2.087844    0.980071
H      -0.704958   -0.409802   -0.370012
H       1.803304   -1.395967   -2.219716
H       2.191099   -2.585734   -0.970105
H       0.506008   -2.285172   -1.413342
H       3.691748   -0.318608    0.169116
H       2.416402   -0.349520    2.773423
H      -0.616797   -1.457883    2.725046
H      -0.767041   -2.317982    1.188326
H       0.619797   -2.625813    2.241070
