19

O       0.052271    0.068136    0.027390
C      -0.009137    1.271036    0.013854
C      -1.226095    2.191345    0.005990
C      -0.769089    3.262035    1.057898
C       0.320819    3.569525   -0.013119
C      -0.773737    3.237720   -1.072070
C       1.124964    2.272919   -0.000079
C       2.402882    2.006632    0.752066
C       2.399582    1.989465   -0.751549
H      -2.207288    1.722059    0.013488
H      -1.503882    4.063872    1.160286
H      -0.442820    2.914363    2.041573
H       0.874823    4.507947   -0.025041
H      -0.451746    2.867668   -2.048967
H      -1.509010    4.037048   -1.189529
H       2.874859    2.844037    1.255618
H       2.476560    1.055462    1.268997
H       2.471040    1.026739   -1.246948
H       2.869304    2.815133   -1.276153
