14

O      -0.227211    1.364518    0.107185
C      -0.052487   -0.015986    0.091227
C      -0.396379   -0.753619    1.330016
C      -1.374135   -0.825534    0.162264
O      -2.551774   -0.102032    0.212436
C      -1.409747   -2.062683   -0.641125
O      -0.512312   -2.876938   -0.667812
C      -2.611943   -2.249907   -1.478821
N      -3.520605   -2.442352   -2.166967
H      -0.109290    1.697458   -0.789690
H       0.734951   -0.404500   -0.548965
H       0.169932   -1.651025    1.550530
H      -0.750313   -0.173087    2.174423
H      -2.314227    0.830529    0.101138
