20

C      -0.021728    1.544886    0.014272
C      -0.034501    0.043799    0.068310
C       1.149832   -0.804929   -0.312783
C       0.585622   -0.941589    1.079688
C       1.395644   -0.728902    2.326508
C      -0.670088   -1.831786    0.996877
O      -1.391037   -1.981167    2.201360
C      -1.293337   -0.831999   -0.031455
H       0.954916    1.945639    0.306164
H      -0.233685    1.907590   -0.999235
H      -0.774731    1.979263    0.682613
H       1.046253   -1.611213   -1.037981
H       2.100297   -0.281605   -0.371868
H       2.040988    0.151126    2.236311
H       0.753618   -0.589428    3.202540
H       2.040444   -1.591886    2.531926
H      -0.498810   -2.852700    0.638734
H      -1.610830   -1.101706    2.528468
H      -2.183751   -0.360704    0.397977
H      -1.549827   -1.214529   -1.025899
