23

C      -0.170992    1.578242   -0.316160
C      -0.113963    0.172635    0.294785
C      -1.417719   -0.582857    0.147564
C      -1.747556   -1.332134   -1.137850
C      -1.499001   -2.088810    0.128789
C      -0.299231   -3.009111    0.385356
C      -0.931340   -4.209083    1.122828
C      -2.196869   -3.581072    1.715914
O      -2.645826   -2.676829    0.717714
H       0.783936    2.101240   -0.202743
H      -0.407042    1.531607   -1.384374
H      -0.944414    2.185745    0.166281
H       0.696718   -0.395256   -0.179044
H       0.150580    0.248145    1.358310
H      -2.275214   -0.109291    0.620708
H      -2.768688   -1.298521   -1.501596
H      -0.987795   -1.374500   -1.913435
H       0.202401   -3.307177   -0.538598
H       0.444850   -2.513959    1.017400
H      -1.209240   -4.993378    0.412356
H      -0.272634   -4.647738    1.876335
H      -3.002381   -4.294076    1.910093
H      -1.967917   -3.050069    2.655041
