18

C      -0.053983    1.416491    0.165575
N      -0.003312   -0.033149    0.122824
C      -1.213937   -0.714582    0.044634
C      -2.450346   -0.218905   -0.260033
O      -3.370891   -1.240019   -0.294005
C      -2.708522   -2.384968   -0.005172
C      -3.505938   -3.650138    0.025575
O      -2.917525   -4.628045    0.865270
C      -1.389749   -2.132876    0.214647
H       0.957983    1.811588    0.280009
H      -0.455918    1.796524   -0.780481
H      -0.683268    1.811013    0.980560
H       0.625845   -0.431610    0.804733
H      -2.830525    0.763145   -0.477232
H      -4.541252   -3.411074    0.315354
H      -3.553923   -4.110803   -0.968883
H      -2.797157   -4.223664    1.731374
H      -0.629455   -2.862945    0.444428
