16

O      -0.066551    1.464493   -0.067227
C       0.005747    0.043160   -0.009309
C       0.661837   -0.466447    1.265670
C      -0.152593   -1.276540    1.957043
C       0.160566   -1.908488    3.193037
N       0.395140   -2.444971    4.192496
C      -1.490834   -1.413665    1.291303
C      -2.277786   -0.123099    1.200508
C      -1.399063   -0.550428    0.052571
H       0.824917    1.807707   -0.187968
H       0.541886   -0.339354   -0.892395
H       1.652700   -0.160448    1.580770
H      -2.004349   -2.366709    1.308152
H      -3.348783   -0.204079    1.051691
H      -1.960787    0.715484    1.809209
H      -1.869039   -0.855103   -0.873421
