17

O      -0.452162    0.323038    0.189739
C       0.502069    0.744156   -0.404834
C       1.355097    1.920136    0.088335
O       2.689457    1.496268    0.273046
C       3.505760    2.033991   -0.756126
C       3.668207    1.172019   -2.040398
C       2.749020    2.165523   -2.816329
C       2.593884    3.020133   -1.526288
O       1.337270    2.957859   -0.868976
H       0.842820    0.306168   -1.370214
H       0.943587    2.281890    1.038715
H       4.424825    2.407574   -0.300133
H       4.694521    1.120471   -2.410136
H       3.288579    0.154567   -1.928748
H       3.240353    2.691222   -3.637844
H       1.803666    1.759093   -3.180924
H       2.888091    4.069181   -1.597575
