22

C      -0.069120    1.544504   -0.066994
C      -0.041279    0.040611    0.063443
N       1.246427   -0.627114   -0.195743
C       0.663160   -0.664772    1.169701
C       1.419067    0.019479    2.315155
C       1.588150   -1.067197    3.417951
C       1.283916   -0.560714    4.833587
C       0.662643   -2.171928    2.951602
C       0.162641   -1.943637    1.737455
H       0.854921    1.986345    0.313588
H      -0.174362    1.839589   -1.116629
H      -0.912430    1.969560    0.488622
H      -0.935235   -0.457944   -0.313408
H       1.099775   -1.519884   -0.662582
H       2.371871    0.426641    1.971263
H       0.826753    0.852881    2.710869
H       2.620470   -1.447278    3.415901
H       0.258991   -0.179069    4.898828
H       1.392539   -1.360272    5.574429
H       1.964992    0.249368    5.114953
H       0.461339   -3.049276    3.557673
H      -0.505127   -2.599529    1.187516
