15

F       0.038384    0.129413   -0.042613
C      -0.005919    1.461636    0.007653
F       1.261082    1.916364   -0.060716
F      -0.648134    1.894817   -1.087429
C      -0.682548    1.979226    1.280826
N      -2.056675    1.490723    1.370893
C      -2.301515    0.928527    2.708801
C      -0.929308    0.876445    3.321495
C      -0.029160    1.455697    2.535717
H      -0.605971    3.077450    1.213425
H      -2.735454    2.186919    1.102821
H      -2.984432    1.547752    3.313288
H      -2.759972   -0.069281    2.645246
H      -0.735402    0.416431    4.282435
H       1.031429    1.558390    2.721744
