13

O      -0.000011   -0.002980   -0.061518
C      -0.033687    1.193313   -0.047565
N      -1.163421    2.024699   -0.079706
C      -0.718798    3.327884    0.122621
C       0.642466    3.307878    0.124651
O       1.090427    2.006173    0.019662
C       1.130054    4.630773    0.027393
C      -0.003637    5.421621   -0.022578
N      -1.140471    4.618243   -0.017350
H      -2.056568    1.631285    0.166231
H       2.149677    4.977958    0.013350
H      -0.102031    6.493976    0.006373
H      -2.081207    4.960365    0.067881
