17

C      -0.258251    1.559763    0.024610
C       0.012366    0.059924   -0.030530
C       0.934504   -0.474023   -1.149207
O       2.159342    0.258552   -1.157307
C       2.925724   -0.289733   -0.070740
C       1.928016   -1.308096    0.527731
O       1.282393   -1.764545   -0.671376
C       0.813338   -0.469458    1.176158
O       0.641529   -0.235400    2.341238
H       0.674543    2.121962   -0.066880
H      -0.924389    1.871200   -0.785356
H      -0.729199    1.817598    0.977050
H      -0.929830   -0.501144   -0.079540
H       0.527409   -0.526400   -2.158237
H       3.819111   -0.788713   -0.460954
H       3.217820    0.499237    0.628967
H       2.337326   -2.126196    1.114422
