17

C      -0.223754    1.446845    0.190910
C      -0.013251   -0.033211    0.002067
C      -0.762266   -1.028687    0.808482
N       0.681736   -0.785831    1.084743
C       1.485201   -1.704672    0.352912
C       2.294419   -2.739171    1.060309
O       2.270438   -2.918654    2.250392
N       1.514002   -1.628238   -0.923713
C       0.603895   -0.539958   -1.309297
H       0.695871    2.001308   -0.023943
H      -1.005730    1.813751   -0.483029
H      -0.524743    1.670728    1.217317
H      -1.428135   -0.691399    1.596747
H      -1.026461   -1.982360    0.358107
H       2.915391   -3.341527    0.367559
H      -0.123716   -0.908791   -2.040862
H       1.180977    0.250034   -1.807125
