18

C       0.577749    1.349880   -0.384077
C      -0.048244    0.060028    0.153638
O      -0.127917   -0.914461   -0.920062
C       0.895933   -1.753690   -1.187472
O       0.968257   -2.350106   -2.230687
N       1.815502   -1.900880   -0.164800
C       1.587256   -1.429706    1.131107
C       0.671269   -0.489548    1.360984
C       0.336540    0.047676    2.719162
H       1.626157    1.186899   -0.650570
H       0.036380    1.691153   -1.270531
H       0.535363    2.137339    0.374865
H      -1.099226    0.248048    0.399872
H       2.497200   -2.622845   -0.329248
H       2.190020   -1.886491    1.907556
H       0.958895   -0.413297    3.491186
H       0.484341    1.133739    2.777510
H      -0.713731   -0.139963    2.978039
