10

N      -0.046926    1.315715   -0.188927
C      -0.034092    0.064101   -0.004873
N       1.197962   -0.643327    0.230034
N       1.277930   -1.837012    0.413270
O      -0.013035   -2.645712    0.394237
N      -1.189750   -2.058147    0.182844
C      -1.224006   -0.773694   -0.008935
C      -2.513214   -0.192677   -0.230586
N      -3.548983    0.287706   -0.410713
H       0.902481    1.694796   -0.143142
