16

O      -0.002931    0.056443    0.473996
C      -0.007901    1.228720    0.220150
N      -1.014720    2.170042    0.153947
C      -0.122218    3.319687   -0.069594
C       1.062782    2.307375   -0.098945
C       1.993554    2.645013    1.083770
C       1.118252    3.434520    2.077814
C       0.084280    4.153254    1.205802
O      -0.464407    5.195948    1.449142
H      -1.978270    2.134149    0.457922
H      -0.360312    3.924139   -0.946415
H       1.575365    2.164421   -1.049876
H       2.428407    1.741626    1.518024
H       2.819092    3.272148    0.732250
H       0.582971    2.758398    2.756425
H       1.662798    4.148741    2.697414
