16

C       0.106980    1.461946    0.278068
C      -0.002912   -0.016148   -0.032366
C       0.652252   -0.584416   -1.231162
O       1.227169   -0.762981    0.057324
C      -1.166770   -0.686299    0.497584
C      -2.153144   -1.207799    0.955119
C      -3.375708   -1.789391    1.492868
N      -3.223711   -3.069598    1.940610
O      -4.430249   -1.185454    1.523387
H       1.020212    1.868182   -0.163102
H      -0.756552    2.002152   -0.120464
H       0.139082    1.622015    1.359431
H       0.242475   -1.480201   -1.693705
H       1.185815    0.090610   -1.899520
H      -2.319473   -3.506448    1.983932
H      -4.010461   -3.511842    2.387267
