14

N       0.159414    1.441492   -0.062554
C       0.006333    0.044812   -0.043856
C      -1.055258   -0.819530    0.023889
N      -2.418607   -0.518922    0.133846
N      -0.630854   -2.135138    0.050527
C       0.677442   -2.061389    0.001875
O       1.528077   -3.104574   -0.000874
N       1.138942   -0.801198   -0.057342
H      -0.174663    1.879917   -0.914321
H      -0.281518    1.898442    0.727726
H      -2.980633   -1.311457   -0.149962
H      -2.683945    0.299804   -0.398685
H       0.976295   -3.895171    0.050009
H       2.097406   -0.499614   -0.086389
