14

O       0.162381    1.518410    0.237882
C       0.009962    0.130690    0.055932
C      -1.483857   -0.297941   -0.111984
C      -1.146497   -1.080899   -1.416780
C       0.214009   -0.377082   -1.421143
O       1.046199   -0.134210   -2.240537
C       0.765237   -0.669384    1.010997
C       1.423416   -1.332515    1.768800
H       1.102271    1.722880    0.163949
H      -1.904592   -0.871539    0.712112
H      -2.090597    0.589190   -0.300277
H      -1.036463   -2.158063   -1.257114
H      -1.773802   -0.918428   -2.295480
H       1.998977   -1.914248    2.446270
