15

N       0.067714    1.401752   -0.083625
C      -0.022298    0.023208   -0.031550
C      -1.186560   -0.685197   -0.064790
C      -1.187645   -2.131718   -0.020246
O      -2.163128   -2.867497   -0.037782
N       0.101015   -2.665563    0.074945
N       1.275919   -2.008558    0.061991
C       1.226879   -0.713999    0.015183
N       2.424367    0.018628    0.079578
H       0.853410    1.783170    0.426730
H      -0.794007    1.899088    0.088772
H      -2.154169   -0.197973   -0.098097
H       0.171712   -3.671906    0.121156
H       3.219804   -0.608873    0.109952
H       2.524352    0.663761   -0.697936
