16

C      -0.027394    1.511536    0.040920
C      -0.010180    0.020150   -0.022685
C      -0.026759   -0.758989   -1.108098
C       0.000994   -2.204320   -0.716883
C       0.037608   -2.162234    0.812874
O       0.067981   -3.081735    1.578033
N       0.028669   -0.773076    1.164219
C       0.053814   -0.268057    2.463157
O       0.086965   -0.924063    3.469277
H       0.862965    1.911387    0.539639
H      -0.057029    1.913090   -0.973921
H      -0.902333    1.889189    0.582402
H      -0.056041   -0.392029   -2.123497
H      -0.878369   -2.773727   -1.040551
H       0.877669   -2.751579   -1.083229
H       0.040482    0.836638    2.466021
