19

O       0.051971    1.222942   -0.600858
C       0.060582    0.084248    0.243481
C      -1.318150   -0.511890    0.372163
O      -1.800527   -1.161628   -0.826880
C      -1.566380   -1.952346    0.335735
C      -0.621027   -3.159178    0.303537
C      -1.848029   -4.063539    0.581633
O      -1.605319   -5.018481    1.585967
C      -2.685044   -2.796234    0.953824
H      -0.328016    0.937425   -1.439738
H       0.760097   -0.683360   -0.119813
H       0.415043    0.427338    1.221775
H      -2.060751    0.132894    0.845492
H      -0.067897   -3.325433   -0.622305
H       0.065976   -3.179852    1.154631
H      -2.221424   -4.532411   -0.338365
H      -2.403685   -5.542196    1.707370
H      -2.747012   -2.677113    2.039750
H      -3.675708   -2.684315    0.507703
