15

C       0.026639    1.375545   -0.055279
N      -0.003674   -0.055421    0.178206
C      -1.207062   -0.716613    0.070335
C      -2.476592   -0.214532    0.038333
O      -3.391938   -1.243565   -0.008596
C      -2.712119   -2.392767   -0.021853
C      -1.364642   -2.157160    0.024559
C      -0.316058   -3.103849    0.017826
N       0.578434   -3.840740    0.005644
H       1.054839    1.731758    0.031261
H      -0.366332    1.661967   -1.043515
H      -0.570007    1.887756    0.708106
H       0.783299   -0.568074   -0.191028
H      -2.887886    0.778040    0.055807
H      -3.285503   -3.303750   -0.066873
