21

C       0.021410    1.587804   -0.104844
C      -0.028511    0.058654   -0.035267
C       0.646285   -0.513306    1.225114
C      -0.077556   -0.266516    2.532557
C      -0.054257   -1.324467    3.339399
C       0.685724   -2.488853    2.727078
C       0.839892   -2.073591    1.235268
C      -0.224485   -2.771704    0.413351
O      -0.033302   -3.304467   -0.650027
H       1.055725    1.949311   -0.085820
H      -0.441885    1.953350   -1.026143
H      -0.506430    2.051760    0.734904
H      -1.072331   -0.275963   -0.082591
H       0.465629   -0.361082   -0.919463
H       1.645330   -0.053227    1.285589
H      -0.515678    0.694427    2.778583
H      -0.474833   -1.362575    4.338193
H       1.665799   -2.633481    3.200201
H       0.151576   -3.441465    2.841218
H       1.804988   -2.353267    0.807472
H      -1.238169   -2.773266    0.879047
