16

C      -0.034064    1.563377   -0.011210
C       0.024113    0.023725    0.035396
N       0.837733   -0.372523    1.194456
C      -1.416079   -0.579828    0.075139
N      -2.080536   -0.189864    1.318473
C       0.677450   -0.473002   -1.188608
N       1.154165   -0.881148   -2.158838
H       0.975312    1.973369   -0.067767
H      -0.613603    1.913562   -0.870053
H      -0.500438    1.931235    0.907206
H       0.240980   -0.244599    2.011095
H       1.040784   -1.367837    1.144328
H      -1.959319   -0.287996   -0.836091
H      -1.322276   -1.670125    0.058869
H      -2.571691    0.690140    1.208108
H      -2.774952   -0.878959    1.581156
