21

C      -0.710528    1.432795   -0.096429
C       0.067982    0.126067    0.025890
C      -0.852924   -1.080133   -0.177063
C       1.368517    0.038266   -0.834834
C       2.172816   -0.434646    0.409041
O       3.361636    0.324097    0.567870
C       0.957286   -0.009259    1.303250
C       2.460983   -1.865084    0.450126
C       2.729195   -3.035824    0.522643
H      -0.058026    2.300422    0.046567
H      -1.176388    1.523113   -1.084941
H      -1.510165    1.487107    0.651822
H      -1.318573   -1.052108   -1.169057
H      -0.305712   -2.023544   -0.089783
H      -1.655873   -1.086937    0.569222
H       1.359423   -0.631292   -1.696955
H       1.737398    1.020588   -1.139915
H       3.871918   -0.070224    1.283962
H       1.175206    0.956619    1.766118
H       0.630905   -0.718852    2.066876
H       2.961748   -4.071047    0.571550
