22

C      -0.060893    1.578331   -0.038244
C      -0.016745    0.047904    0.005352
C       0.681117   -0.485412   -1.255200
C       0.747251   -2.018250   -1.288410
C       1.272555   -2.574749    0.018823
O       2.045014   -3.500890    0.088428
C       0.698694   -1.911098    1.265408
N       0.695625   -0.449827    1.191754
C       0.213898    0.099611    2.451816
H       0.946480    1.993755    0.070293
H      -0.464572    1.905964   -1.000711
H      -0.696000    2.002447    0.742586
H      -1.064068   -0.325629    0.006372
H       0.154448   -0.119177   -2.142506
H       1.696009   -0.071453   -1.285232
H      -0.268954   -2.420526   -1.415846
H       1.355808   -2.398192   -2.112452
H      -0.327435   -2.319350    1.407508
H       1.296033   -2.234130    2.121333
H       0.783607   -0.342428    3.274568
H       0.364463    1.179764    2.490311
H      -0.858123   -0.109793    2.635022
