9

O       0.022882   -0.128390    0.036752
C       0.039015    1.048867   -0.194733
C       1.308117    1.904723   -0.128779
C       1.329241    2.944972   -1.144937
C       1.299679    3.785385   -2.002945
H      -0.880683    1.613506   -0.459420
H       1.330229    2.357536    0.874266
H       2.174526    1.239095   -0.195576
H       1.292042    4.533414   -2.756776
