23

C       0.040888    1.552875    0.006609
C       0.035081    0.022071   -0.015061
C       0.690328   -0.542830   -1.282204
C       0.551369   -2.067359   -1.348311
O       1.329777   -2.629842   -2.406312
C       0.887246   -2.708288   -0.026009
C       0.985508   -2.052715    1.134041
C       1.363591   -2.739828    2.418028
C       0.723050   -0.565653    1.228553
H       1.065549    1.941478   -0.032954
H      -0.504121    1.963587   -0.849620
H      -0.426005    1.939863    0.918991
H      -1.011795   -0.315280   -0.003603
H       0.260896   -0.094425   -2.184424
H       1.760894   -0.288927   -1.279404
H      -0.481275   -2.321426   -1.626425
H       2.256312   -2.516806   -2.165568
H       1.065503   -3.781351   -0.065998
H       1.577541   -3.800613    2.263608
H       2.250221   -2.273381    2.867331
H       0.561206   -2.656832    3.162609
H       1.678809   -0.045116    1.402737
H       0.119161   -0.358110    2.122891
