18

C       0.037016    1.502148   -0.092399
C      -0.000521    0.049168   -0.033903
C      -0.028941   -1.154245    0.026173
C      -0.065011   -2.590810    0.075860
C       0.541770   -3.417973   -1.089934
N      -0.604170   -4.373836   -1.029700
C      -1.314148   -3.529327   -0.040750
C      -0.978569   -3.932951    1.399581
O       0.246411   -3.154849    1.375808
H       0.696677    1.853132   -0.893524
H      -0.959834    1.919052   -0.274247
H       0.404951    1.922469    0.849976
H       0.603227   -2.843721   -2.020987
H       1.513959   -3.868989   -0.869465
H      -1.098198   -4.445810   -1.910539
H      -2.325586   -3.206600   -0.288476
H      -1.671108   -3.550872    2.160695
H      -0.792878   -5.000311    1.553701
