21

C       0.502047    1.331142    0.325112
C      -0.029794   -0.056185   -0.016228
O      -1.420600   -0.006719   -0.291972
C       0.819200   -0.851774   -1.062871
C       1.225051   -1.870735    0.042906
C       2.713051   -1.851700    0.427467
C       3.009124   -2.688048    1.584787
C       3.223406   -3.384877    2.540674
C       0.259596   -1.160615    1.035387
H       1.563469    1.303606    0.591160
H       0.396122    2.009718   -0.531479
H      -0.053752    1.752366    1.168865
H      -1.564573    0.652659   -0.980051
H       0.193175   -1.285654   -1.845624
H       1.642388   -0.301775   -1.530258
H       0.938650   -2.900818   -0.180411
H       3.312948   -2.184068   -0.430618
H       3.029836   -0.820259    0.634211
H       3.423492   -3.997894    3.383918
H       0.707357   -0.821809    1.973420
H      -0.639699   -1.735461    1.262207
