20

C       0.077693    1.523064   -0.038452
C      -0.015445    0.012588    0.017901
C      -1.279387   -0.597302   -0.600060
C      -1.918117   -1.724938    0.225662
C      -0.874417   -2.713741    0.772532
C       0.085786   -1.972483    1.694464
O       0.334060   -2.351289    2.818462
C       0.662795   -0.701070    1.162356
N       1.258921   -0.670807   -0.198678
H       1.038086    1.865204    0.353897
H      -0.008265    1.872215   -1.073826
H      -0.727128    1.985994    0.542525
H      -2.018404    0.195804   -0.752709
H      -1.026248   -0.966798   -1.603349
H      -2.458544   -1.289449    1.075153
H      -2.662416   -2.254341   -0.378166
H      -1.334876   -3.516199    1.352812
H      -0.325900   -3.183829   -0.055238
H       1.214949   -0.130917    1.904137
H       1.114859   -1.565077   -0.663553
