18

C      -0.557869    1.351437    0.018742
N      -0.071529   -0.022948    0.026827
C       0.321410   -0.600251    1.207893
O       0.286585   -0.065683    2.294169
C       0.067558   -0.703094   -1.204801
C      -1.119247   -1.092341   -2.070581
C      -0.162262   -2.146671   -1.607646
O       0.996259   -2.176675   -2.437758
C       1.345457   -0.821039   -2.046044
H       0.138011    2.015102   -0.507199
H      -1.532408    1.406262   -0.476565
H      -0.648819    1.676897    1.054845
H       0.669773   -1.638061    1.052060
H      -2.068601   -1.068988   -1.544297
H      -1.154402   -0.824199   -3.122670
H      -0.422828   -3.041562   -1.055514
H       1.463684   -0.153218   -2.906642
H       2.256157   -0.819271   -1.436349
