21

C      -0.078981    1.507711    0.156843
C       0.077792    0.007458    0.074199
O      -0.855842   -0.624657   -0.770051
C       1.459433   -0.624964    0.157798
C       0.448107   -0.781222    1.294006
O       0.659394   -0.013800    2.445990
C      -0.173744   -2.139988    1.557931
C       0.788042   -3.102508    2.245704
O       1.179056   -2.533463    3.502332
H       0.593867    1.929586    0.904524
H       0.139690    1.972140   -0.812849
H      -1.106690    1.763555    0.433015
H      -0.637590   -0.380118   -1.676278
H       1.650121   -1.479524   -0.484290
H       2.307909    0.025521    0.340210
H       1.066408   -0.613980    3.087842
H      -1.058528   -2.002559    2.190835
H      -0.509319   -2.583162    0.617512
H       0.300662   -4.075228    2.405364
H       1.670348   -3.264660    1.609625
H       1.908365   -3.047230    3.860452
