18

C      -0.442137    1.392697    0.001624
C       0.080753   -0.031141   -0.088699
C       1.424934   -0.290974   -0.795596
O       1.944024   -1.016262    0.336994
C       0.778805   -0.696034    1.153916
C       1.175784    0.214672    2.314796
C       0.113349   -1.899792    1.642826
C      -0.454801   -2.879017    2.047868
H       0.322674    2.091730    0.352467
H      -0.774662    1.735634   -0.984204
H      -1.300027    1.459702    0.678742
H      -0.702649   -0.691315   -0.466336
H       1.392701   -0.909800   -1.699246
H       2.014817    0.612285   -1.004797
H       1.699923    1.099885    1.946665
H       0.296822    0.529396    2.885206
H       1.846238   -0.328320    2.985984
H      -0.948040   -3.750351    2.402238
