21

C      -0.225198    1.496099    0.209392
C       0.020360    0.016230    0.016919
C       0.549382   -0.607400   -1.244057
C       1.023760    0.240160   -2.426130
C       2.542464    0.468540   -2.422097
C       3.017308    1.050449   -1.081201
C       2.683239    0.129044    0.088993
O       3.459180   -0.032065    1.007387
C       1.403342   -0.640392    0.023209
H       0.480604    2.126385   -0.334662
H      -1.231257    1.761049   -0.135170
H      -0.155486    1.763535    1.268689
H      -0.712646   -0.593630    0.539345
H       0.104807   -1.559346   -1.517485
H       0.730519   -0.257086   -3.355800
H       0.514023    1.211156   -2.430424
H       3.054708   -0.485559   -2.599108
H       2.828505    1.135459   -3.242816
H       4.097652    1.216412   -1.059877
H       2.545062    2.027627   -0.911974
H       1.466461   -1.566234    0.584984
