19

C       0.121865    1.352257    0.038672
O      -0.200164    0.014953   -0.288493
C       0.668875   -0.592112   -1.239644
C       2.049440   -0.689830   -0.746573
C       3.182581   -0.756098   -0.351679
C       0.060499   -1.958101   -1.517542
O      -0.090510   -2.733805   -0.368202
C      -0.967165   -2.086418   -2.615577
C       0.414569   -2.699350   -2.762216
H       1.117890    1.431510    0.492414
H       0.087103    2.000177   -0.850288
H      -0.629873    1.692164    0.754358
H       0.668529   -0.002314   -2.171081
H       4.182950   -0.830275   -0.002354
H      -0.553033   -2.175881    0.270030
H      -1.791949   -2.762016   -2.421707
H      -1.216122   -1.215043   -3.211789
H       1.116195   -2.249067   -3.455989
H       0.498585   -3.775399   -2.664774
