20

C       0.082138    1.615671   -0.017114
C      -0.201256    0.120482    0.149027
C       0.678386   -0.526029    1.218432
C       0.655546   -2.107011    1.291609
N       2.084668   -2.060740    0.951711
C       3.310859   -2.637041    0.776795
C       4.188510   -1.577240    0.596175
C       3.472774   -0.339383    0.686364
C       2.162879   -0.703096    0.909320
H       1.123010    1.783107   -0.312585
H      -0.559959    2.057160   -0.785083
H      -0.092642    2.159573    0.917855
H      -1.255655   -0.031649    0.414866
H      -0.038053   -0.394657   -0.805746
H       0.479883   -0.065153    2.193288
H       0.447708   -2.530100    2.278917
H       0.033862   -2.601692    0.538641
H       3.471763   -3.702541    0.774022
H       5.247267   -1.679209    0.407217
H       3.890116    0.651366    0.600449
