16

C      -0.090864    1.413927    0.012639
O      -0.006341   -0.004902    0.082950
C      -1.179714   -0.660187    0.037738
N      -2.349011   -0.045448   -0.065481
N      -3.243779   -1.071354   -0.075871
C      -2.665806   -2.295337    0.017326
C      -3.457909   -3.561703    0.024480
C      -1.306639   -2.068990    0.094177
H       0.936032    1.779431    0.062015
H      -0.561275    1.734722   -0.923087
H      -0.675233    1.815667    0.847438
H      -4.222541   -0.856080   -0.148596
H      -4.043035   -3.680621   -0.894722
H      -2.789570   -4.420940    0.107291
H      -4.157004   -3.599369    0.867857
H      -0.520624   -2.800419    0.178235
