17

N      -0.552671    1.030048    0.906834
C      -0.127525   -0.012826    0.323342
C      -0.834467   -0.786153   -0.788403
N       0.041155   -1.910334   -1.135552
C       1.063504   -1.822846   -0.368854
N       1.051525   -0.741248    0.505801
C       2.193482   -2.777094   -0.379364
C       1.876994   -4.235745   -0.274600
N       2.322688   -3.663170   -1.541646
H       0.097699    1.364944    1.619245
H      -1.814644   -1.141685   -0.452143
H      -1.010865   -0.145855   -1.659411
H       1.763508   -0.528341    1.184256
H       3.131122   -2.405884    0.027245
H       2.587319   -4.897307    0.213481
H       0.829434   -4.498336   -0.160340
H       1.509932   -3.493275   -2.134995
