21

C      -0.003113    1.554280   -0.191890
C      -0.143642    0.042997   -0.205486
O       0.912465   -0.484964   -1.013662
C       0.904487   -1.857473   -1.171459
C      -0.079037   -2.481242   -2.169957
C       1.370606   -2.382245   -2.527399
C       1.861451   -1.406096   -3.571962
C       1.266539   -2.683822    0.008656
O       1.519331   -2.255246    1.107183
H       0.963430    1.843918    0.229396
H      -0.072972    1.961873   -1.204783
H      -0.794591    2.000942    0.417319
H      -0.071836   -0.365845    0.807920
H      -1.114849   -0.256443   -0.628179
H      -0.512663   -3.449632   -1.944057
H      -0.758000   -1.772215   -2.631438
H       1.928109   -3.314654   -2.477906
H       1.322308   -0.459699   -3.502385
H       2.927014   -1.194184   -3.440055
H       1.719448   -1.819046   -4.576054
H       1.287008   -3.778767   -0.208092
