15

C       0.011237    1.384367    0.036121
N       0.191592   -0.060763    0.056589
C       0.651957   -0.734323   -1.031422
C       1.132493   -2.004900   -1.218966
C       1.363898   -2.049763   -2.614280
C       1.884359   -3.169617   -3.423567
O       2.193906   -4.239482   -2.956501
N       1.062459   -0.921967   -3.227528
O       0.609671   -0.077411   -2.209227
H       0.955989    1.933328   -0.073844
H      -0.643887    1.661660   -0.792132
H      -0.467141    1.685342    0.969797
H       0.451554   -0.468451    0.939976
H       1.291873   -2.785748   -0.496928
H       1.968930   -2.945430   -4.505727
