21

O      -0.009207    1.400750   -0.042522
C       0.006271    0.002655    0.011046
C      -0.473041   -0.706614    1.257810
C      -1.316873   -0.697319   -0.009946
C      -2.602197    0.115105   -0.017686
C      -3.772072   -0.771732    0.419573
O      -3.875524   -1.940431   -0.379125
C      -2.712193   -2.745974   -0.303082
C      -1.469943   -1.991812   -0.792097
H       0.692306    1.727548    0.530082
H       0.820947   -0.462395   -0.546674
H       0.022917   -1.624013    1.559441
H      -0.802547   -0.077856    2.078953
H      -2.520347    0.990640    0.631535
H      -2.796816    0.482372   -1.033181
H      -3.652391   -1.051222    1.480748
H      -4.725961   -0.246737    0.313973
H      -2.554721   -3.086740    0.735096
H      -2.908750   -3.626680   -0.921555
H      -1.590703   -1.766397   -1.859600
H      -0.582855   -2.627543   -0.688373
