13

C      -0.082872    1.567077    0.067468
C       0.149892    0.096392   -0.003698
O      -0.754292   -0.798583    0.693407
C       0.638417   -0.930153    0.959392
C       1.188276   -1.856028   -0.132906
C       0.709436   -0.764314   -1.141933
O       0.877518   -0.584781   -2.310438
H       0.800777    2.111913   -0.277990
H      -0.924756    1.852238   -0.571338
H      -0.310269    1.869557    1.092859
H       0.983630   -0.783562    1.975578
H       2.277904   -1.952842   -0.164059
H       0.720413   -2.840325   -0.192474
