15

O       0.052444    1.433615    0.380643
C       0.027595    0.098105   -0.060378
C      -1.378478   -0.464344   -0.096443
C      -1.799078   -1.371986   -1.018962
C      -3.140649   -1.911252   -0.978230
O      -3.655646   -2.722926   -1.719858
N      -3.884333   -1.358115    0.100025
C      -3.389351   -0.450065    0.968482
N      -2.180906    0.013718    0.919925
H      -0.633100    1.495177    1.060468
H       0.475926    0.058002   -1.058038
H       0.633553   -0.554688    0.594241
H      -1.151812   -1.720036   -1.814665
H      -4.837670   -1.686700    0.183143
H      -4.069076   -0.107169    1.744926
