17

O      -0.202459    1.310097   -0.127187
C      -0.022049   -0.073572   -0.085897
C       0.965376   -0.764184   -0.962854
C       0.546395   -2.018991   -1.171523
C      -0.688137   -2.280395   -0.336358
C      -0.234775   -2.274606    1.185554
C      -0.511068   -0.782550    1.233923
C      -1.289450   -0.863043   -0.067791
O      -2.519098   -0.405419   -0.468533
H       0.344964    1.721852    0.548837
H       1.874033   -0.302697   -1.329026
H       1.078884   -2.792531   -1.711046
H      -1.344435   -3.091813   -0.644655
H      -0.953290   -2.816722    1.805727
H       0.779162   -2.635240    1.385835
H      -0.666826   -0.169304    2.114706
H      -2.425048    0.542977   -0.630508
