21

C      -0.061805    1.488043    0.062829
C       1.302650    0.828053    0.020566
C       2.260316    0.416433    1.126364
C       2.384714   -1.144705    1.115749
C       1.002785   -1.872951    0.920372
C      -0.103560   -0.856458    1.272180
C       0.022576   -0.004473    0.007811
C       0.034875   -1.050157   -1.072442
C       0.644044   -2.124443   -0.556028
H      -0.430694    1.917535    0.990798
H      -0.346927    2.051874   -0.820478
H       1.773888    0.900111   -0.956971
H       3.249465    0.866479    0.990576
H       1.909828    0.757738    2.105383
H       3.072712   -1.448192    0.319200
H       2.838179   -1.471436    2.057833
H       0.976579   -2.789163    1.515851
H      -1.086153   -1.336154    1.316612
H       0.058817   -0.313592    2.205953
H      -0.288711   -0.905317   -2.096017
H       0.897967   -3.035199   -1.085128
