17

C       0.220681   -1.150160    0.012410
C       0.108264    0.046107    0.007891
C      -0.030723    1.489410   -0.020952
O      -0.290508    2.106886    1.291702
C       0.684456    3.177018    1.011294
C       1.911723    3.416319    1.904268
C       3.099450    3.272485    0.889401
C       2.544620    2.292904   -0.146251
C       1.220380    2.342199   -0.101257
H       0.320865   -2.207444    0.023717
H      -0.825484    1.781210   -0.721405
H       0.141941    4.096545    0.755415
H       1.904182    4.374281    2.431081
H       1.967091    2.612770    2.645190
H       3.373235    4.241741    0.451875
H       4.004298    2.881143    1.365150
H       3.161224    1.602001   -0.707745
