20

C      -0.064152    1.453427    0.003433
N       0.032117    0.005605   -0.080390
C      -1.236936   -0.712671   -0.012995
C      -1.121539   -2.184643   -0.397301
C       0.044429   -2.825070    0.337752
O       0.070773   -4.202836   -0.003788
C       1.328005   -2.103788   -0.071064
C       1.272870   -0.577936   -0.004586
O       2.302227    0.072363    0.068387
H       0.942795    1.865302   -0.033531
H      -0.657788    1.844271   -0.831452
H      -0.547478    1.762154    0.940226
H      -1.653949   -0.623077    1.003381
H      -1.946559   -0.209838   -0.681111
H      -2.055958   -2.699542   -0.156350
H      -0.955807   -2.288843   -1.475811
H      -0.112059   -2.706055    1.423854
H       0.836775   -4.602789    0.420711
H       2.185926   -2.408480    0.535570
H       1.559144   -2.377567   -1.108449
