18

C       0.045724    1.490626   -0.211406
N       1.536618    1.290687   -0.126919
C       1.312301    0.065626    0.515550
N       1.797355   -0.506856    1.538336
C       0.757219   -1.388501    2.127128
C      -0.483675   -0.478109    2.370913
N      -0.954595   -0.764101    0.957125
C      -0.179665   -2.078868    1.105018
C      -0.101365   -0.053665   -0.005127
H      -0.356478    2.073125    0.624023
H      -0.296133    1.902223   -1.163013
H       2.116134    1.983287    0.336094
H       1.181240   -1.977949    2.940689
H      -1.215546   -0.899985    3.064530
H      -0.292713    0.569088    2.618893
H       0.254422   -2.467396    0.180198
H      -0.825659   -2.835243    1.558565
H      -0.192150   -0.546038   -0.975394
