15

O      -0.854760    1.142349    0.571869
C       0.125939    0.937065   -0.101671
C       1.318168    1.831990   -0.083355
N       1.280300    3.024462    0.781557
C       1.516073    3.926638   -0.377161
C       1.779498    2.710147   -1.304946
N       3.079657    2.056278   -1.208557
C       2.777420    1.244841   -0.132571
O       3.414921    0.460239    0.506515
H       0.196332    0.063193   -0.782535
H       0.368997    3.125197    1.217506
H       0.628689    4.485120   -0.696450
H       2.349596    4.623130   -0.241422
H       1.323959    2.692522   -2.295071
H       3.981964    2.335855   -1.568435
