12

N       0.091414    1.396601    0.089611
C      -0.028098    0.037341   -0.033061
N      -1.213820   -0.482009   -0.083941
O      -1.256847   -1.876042   -0.333292
C      -0.132800   -2.631383   -0.466063
N      -0.139581   -3.876980   -0.696002
C       1.121010   -1.875506   -0.314608
F       2.218940   -2.579554   -0.391178
N       1.196786   -0.626393   -0.117333
H       0.946989    1.712214    0.518689
H      -0.746713    1.889084    0.357740
H      -1.097051   -4.226543   -0.768290
