10

O       0.119361    1.296514    0.163761
C       0.075827   -0.022945    0.003841
N       0.113166   -0.701898   -1.118174
C       0.035431   -1.994900   -0.666973
N      -0.045609   -2.140481    0.647041
N      -0.018255   -0.850261    1.066248
C       0.040501   -3.117943   -1.546215
N       0.045635   -4.019370   -2.269583
H       0.185480    1.693175   -0.715198
H      -0.065643   -0.626711    2.047097
