15

N       0.051065   -1.186250   -0.253976
C      -0.036491   -0.048558   -0.054878
C      -0.084953    1.360430    0.206792
C      -1.258554    1.992014    0.096985
C      -1.537334    3.434356    0.383424
O      -0.549600    4.396301    0.023575
C       0.726003    4.317987    0.484786
N       1.478860    3.353867    0.773130
C       1.255262    1.943178    0.627708
H      -2.132990    1.407326   -0.174741
H      -2.429934    3.746387   -0.164652
H      -1.763829    3.549004    1.454814
H       1.123433    5.330456    0.563143
H       1.534973    1.458817    1.574837
H       2.009953    1.582560   -0.085366
