15

N      -0.003921   -1.090794    0.514170
C       0.026368    0.050762    0.345937
C       0.019475    1.500202    0.127488
O       1.342743    1.969207    0.084204
C       1.415194    3.360672   -0.178904
C       2.863084    3.762164   -0.180704
C       3.262905    5.144062    0.108054
O       3.434183    4.112266    1.078058
H      -0.517070    1.708899   -0.813305
H      -0.554136    1.975754    0.939967
H       0.959076    3.585661   -1.158300
H       0.876021    3.934593    0.590639
H       3.503945    3.149830   -0.814996
H       4.177314    5.539420   -0.330721
H       2.503856    5.888720    0.346092
