19

C       0.069234    1.363195   -0.050245
O      -0.076687   -0.035197    0.108859
C       0.622627   -0.572596    1.185934
C       2.192211   -0.576579    1.142539
C       2.148665   -2.053626    1.539164
C       1.133277   -2.240670    2.649251
O       0.784932   -1.128831    3.452507
C       0.146418   -0.178837    2.596229
C       0.643086   -2.123363    1.252845
H       1.124754    1.655272   -0.145041
H      -0.454418    1.633143   -0.969836
H      -0.373797    1.924619    0.784287
H       2.537019   -0.453506    0.112723
H       2.725429    0.115591    1.802911
H       2.913213   -2.793931    1.332187
H       1.117261   -3.180380    3.187632
H       0.460494    0.822580    2.907189
H      -0.949780   -0.254000    2.666966
H       0.026878   -2.809245    0.688108
