15

C      -0.063721    1.524473   -0.000951
C       1.442378    1.873788   -0.022930
N       2.209308    1.424496    1.155263
C       2.282395    0.627053   -0.102568
C       1.262961   -0.432537   -0.115584
C      -0.003801    0.021499   -0.026494
N      -0.873958   -1.048362    0.094197
C      -0.081651   -2.075938    0.056296
O       1.251906   -1.790255   -0.058393
H      -0.544410    1.915869    0.901438
H      -0.582663    1.951278   -0.867088
H       1.758785    2.780342   -0.527418
H       3.050509    1.994862    1.231186
H       3.210277    0.575731   -0.659779
H      -0.340922   -3.122439    0.085013
