17

C      -0.223430    1.594657   -0.204469
C       0.144495    0.129546   -0.057648
C       0.930034   -0.572747   -1.144216
N       1.571337   -0.147492    0.085029
C       2.104174   -1.020512    1.053577
N       2.998802   -1.926615    0.522340
O       1.830814   -0.952212    2.229336
C      -0.807114   -0.672708    0.675248
C      -1.640943   -1.304493    1.266111
H       0.541502    2.117511   -0.783665
H      -1.188983    1.697483   -0.707783
H      -0.296639    2.064460    0.780102
H       0.741997   -1.634359   -1.281652
H       1.203334   -0.022590   -2.041979
H       3.423465   -1.716605   -0.366976
H       3.599305   -2.364558    1.203366
H      -2.357788   -1.871173    1.807234
