16

N      -0.026476    1.494253    0.034180
C      -0.002860    0.044094   -0.002305
C      -1.451563   -0.530939   -0.013064
C      -1.417410   -2.097120   -0.055018
O      -2.691051   -2.673265   -0.046546
C      -2.170103   -0.136546    1.209075
N      -2.730780    0.058999    2.199874
C      -2.160467   -0.020341   -1.197304
N      -2.648039    0.387266   -2.161506
H       0.878951    1.861118    0.301949
H      -0.256819    1.878415   -0.876430
H       0.520423   -0.397880   -0.865345
H       0.485267   -0.322958    0.905456
H      -0.937465   -2.399881   -0.989322
H      -0.792182   -2.431712    0.785191
H      -3.102478   -2.505327    0.809852
