21

O      -0.639333    0.668969    0.595695
C       0.119631    0.936949   -0.299693
C       1.347046    1.808804   -0.169565
C       1.327356    2.975929   -1.171024
C       2.607232    3.818595   -1.131652
C       2.597835    4.924354   -2.172641
C       3.919407    5.669013   -2.468744
C       3.714457    5.162864   -3.910155
O       2.548973    4.403790   -3.526146
H      -0.050905    0.543871   -1.330439
H       1.418787    2.159624    0.864473
H       2.223157    1.175851   -0.375513
H       1.195900    2.590527   -2.188992
H       0.460275    3.616534   -0.964942
H       2.735675    4.270630   -0.138608
H       3.479450    3.175269   -1.306914
H       1.746435    5.598605   -1.994857
H       3.905416    6.750659   -2.329301
H       4.789455    5.251432   -1.957381
H       3.469552    5.940605   -4.644683
H       4.502752    4.523180   -4.323571
