15

O       0.255001    0.078090    0.279149
C       0.171233    1.256876    0.096740
N      -0.941865    2.111275   -0.024040
C      -0.103467    3.305570   -0.126812
C       0.848505    3.457595    1.022043
C       0.513506    3.110499    2.466734
C       1.716835    2.892744    3.269687
N       2.676354    2.741616    3.894869
C       1.140359    2.426802   -0.070069
H      -1.784685    2.033737    0.533568
H      -0.344106    4.088234   -0.834067
H       1.494573    4.328690    0.932144
H      -0.059747    3.927708    2.920839
H      -0.110672    2.213284    2.521983
H       2.040327    2.452505   -0.666846
