12

C       0.025201    1.430265    0.066130
N      -0.092033   -0.006885   -0.102372
C       0.588438   -0.641691   -1.091355
N       1.186090   -0.020795   -2.088381
O       1.685425   -1.097483   -2.863517
C       1.336302   -2.206030   -2.223206
N       0.666359   -2.024341   -1.132411
H       1.041500    1.746414    0.338206
H      -0.241906    1.928403   -0.869364
H      -0.669841    1.752523    0.843781
H      -0.244510   -0.569905    0.718497
H       1.638106   -3.145391   -2.664292
