12

N       0.095314    1.026421   -0.946020
C      -0.012298    0.213454    0.026343
O       0.916838    0.043434    0.997917
N       1.383462   -1.488138    1.193895
N       0.556017   -2.169665    1.709808
C      -0.759774   -1.651800    2.141426
N      -1.080201   -1.674470    3.356808
N      -1.621890   -1.320371    1.109372
C      -1.287442   -0.536849    0.161884
H       1.013533    1.476741   -0.929407
H      -0.325934   -2.028678    3.944570
H      -2.004688   -0.359905   -0.637944
