23

C       1.816318   -0.012444    1.133657
C       0.808073    0.428564    0.067907
C       0.970259   -0.330014   -1.257066
C       0.725597   -1.834064   -1.189153
C      -0.705578   -2.332620   -1.044397
C      -0.071062   -2.180664   -2.404396
O      -0.356367   -1.032337   -3.153334
C       0.052290    0.146907   -2.435194
C      -1.180116    0.975621   -2.069883
H       1.687896   -1.068884    1.390008
H       2.846695    0.122189    0.784926
H       1.698005    0.569324    2.052957
H      -0.208989    0.291096    0.451763
H       0.926450    1.504046   -0.114143
H       2.011165   -0.199066   -1.581645
H       1.530743   -2.469748   -0.839857
H      -0.835884   -3.339695   -0.661287
H      -1.489961   -1.641594   -0.757489
H       0.118990   -3.044750   -3.031225
H       0.649163    0.741436   -3.138767
H      -1.828036    0.470440   -1.348975
H      -0.892143    1.945570   -1.652647
H      -1.765075    1.156607   -2.975855
