23

C      -0.292812    1.126765   -1.697678
C      -0.170526   -0.040752   -0.741121
C       1.157692   -0.636562   -0.311627
C       2.500274   -0.130104   -0.794285
C       0.291665    0.105230    0.695414
C       0.718014    1.446842    1.264404
C      -0.395294   -0.743203    1.731937
C      -1.856966   -0.818446    1.865000
O      -1.110863   -1.896698    1.290155
H       0.506282    1.862865   -1.582753
H      -0.265490    0.777171   -2.735786
H      -1.243454    1.653189   -1.555039
H      -0.951513   -0.785665   -0.870503
H       1.128803   -1.717634   -0.195263
H       2.522282    0.951831   -0.944021
H       3.292900   -0.377840   -0.079224
H       2.764856   -0.594795   -1.750784
H       1.257753    2.058996    0.540640
H      -0.151864    2.023062    1.600720
H       1.375941    1.310486    2.131314
H       0.195779   -0.918763    2.634710
H      -2.310621   -1.031405    2.831771
H      -2.482015   -0.265680    1.165274
