14

O       0.010475    0.043709    0.227067
C      -0.000801    1.228470    0.047278
C      -1.245186    2.096562   -0.196999
O      -0.800866    3.347908   -0.703575
C       0.571575    3.491327   -0.483640
C       1.081426    3.384971    0.903428
C       1.184404    2.159515   -0.040651
C       2.463964    1.671890   -0.444215
N       3.505572    1.292241   -0.773719
H      -1.898491    1.619662   -0.932819
H      -1.809818    2.214002    0.738350
H       1.054571    4.124566   -1.217306
H       2.030410    3.854697    1.132901
H       0.382690    3.322118    1.730158
