19

N      -0.082696    1.203040   -0.245402
C      -0.084538   -0.058786   -0.191784
O      -1.198357   -0.718678    0.170654
C      -1.090112   -2.134916    0.348237
C      -2.454961   -2.745022    0.104559
C      -3.025673   -2.738129   -1.361650
C      -3.083904   -4.267455   -1.300542
N      -1.691988   -4.723833   -1.065245
C      -2.528602   -4.280406    0.080005
H       0.827659    1.532315   -0.559885
H       0.759229   -0.722175   -0.430590
H      -0.363121   -2.558037   -0.353735
H      -0.749349   -2.345048    1.371808
H      -3.181642   -2.320909    0.801912
H      -4.005864   -2.262442   -1.419775
H      -2.373130   -2.326710   -2.135263
H      -3.808764   -4.927055   -1.761079
H      -1.706009   -5.743413   -1.062510
H      -2.725977   -4.946640    0.911053
