18

C      -0.033232    1.527212    0.007909
C       1.328513    0.834468   -0.023216
C       0.064962    0.047416   -0.004146
C      -0.534212   -1.032286    0.909783
O      -1.730518   -1.048778    0.026375
C      -0.568254   -1.021907   -0.906847
C       0.091460   -2.090458   -0.017405
C       1.313267   -2.904242    0.000037
N      -0.045328   -3.517780   -0.080562
H      -0.330337    2.019682    0.928033
H      -0.367257    2.031374   -0.892999
H       1.899866    0.878062   -0.944937
H       1.934998    0.867421    0.876310
H      -0.693669   -1.034507    1.988813
H      -0.771474   -1.018604   -1.976857
H       1.917669   -3.028671   -0.894187
H       1.865895   -2.979902    0.933714
H      -0.324877   -3.906922    0.816431
