18

C       0.158926    1.442687    0.117957
C      -0.058058   -0.073118    0.021378
O       0.487294   -0.636491    1.196528
C      -1.521072   -0.351027   -0.039915
N      -2.655039   -0.567546   -0.093437
C       0.580510   -0.632255   -1.258677
C       2.034705   -1.051556   -1.251076
C       0.942677   -2.082038   -1.389573
O       0.631094   -2.922751   -0.303025
H       1.232815    1.642648    0.137293
H      -0.289814    1.958904   -0.733998
H      -0.289527    1.820425    1.039136
H       0.455838   -1.599866    1.081287
H       0.199880   -0.160911   -2.159537
H       2.656668   -0.820994   -2.108560
H       2.530495   -1.006735   -0.287358
H       0.792629   -2.550802   -2.359912
H       1.337782   -3.570795   -0.208835
