21

C      -0.010490    1.507859   -0.026876
C      -0.007473   -0.007911    0.027821
C       0.768744   -0.721491   -1.128425
O       0.969610   -2.054086   -0.661777
C       0.359966   -2.119942    0.672806
C       0.874133   -3.352062    1.375344
C       0.697772   -0.719926    1.215528
C      -1.143241   -1.979458    0.451433
C      -1.355563   -0.718346    0.064654
H       1.009865    1.906027   -0.022797
H      -0.505230    1.871636   -0.934806
H      -0.540805    1.932931    0.831517
H       0.203591   -0.724102   -2.068871
H       1.741170   -0.240369   -1.303015
H       1.963483   -3.318796    1.464297
H       0.441215   -3.429317    2.377248
H       0.606231   -4.252724    0.814368
H       1.776507   -0.537907    1.264510
H       0.228743   -0.498539    2.176157
H      -1.851552   -2.798231    0.481996
H      -2.281860   -0.277578   -0.285279
