17

N      -0.316628   -1.127270    0.351494
C      -0.186441    0.014699    0.226890
C      -0.024609    1.435419    0.029348
N       0.591161    2.193640    1.137396
C       1.331590    2.061068   -0.117674
C       2.602513    1.260798   -0.081016
C       3.240980    0.936271   -1.452782
O       4.384507    1.767216   -1.171268
C       3.900951    2.071032    0.151792
H      -0.841377    1.893643   -0.521673
H       0.144453    3.103585    1.214041
H       1.355955    2.926240   -0.780892
H       2.480855    0.403169    0.581373
H       3.517735   -0.114005   -1.601131
H       2.684830    1.283839   -2.333318
H       3.770137    3.149917    0.307022
H       4.560946    1.678411    0.934358
