15

O       0.177209    1.395450    0.254705
C      -0.077252    0.047398   -0.011895
C      -1.499394   -0.281181   -0.474995
O      -1.350892   -1.548251   -1.128392
C      -0.167566   -1.506029   -1.923391
C      -0.418569   -1.101131   -3.304142
C      -0.633738   -0.744357   -4.430809
C       0.730943   -0.473536   -1.198978
O       1.814819   -0.072218   -1.520641
H       1.066783    1.579557   -0.079826
H       0.163237   -0.596629    0.853110
H      -2.218007   -0.416617    0.333572
H      -1.862477    0.495197   -1.162723
H       0.295312   -2.499482   -1.895441
H      -0.820994   -0.440672   -5.431490
