16

N       0.162584   -0.607399    1.250875
C       0.066754    0.327984    0.578553
C      -0.040411    1.521693   -0.301406
O      -1.076194    2.384250    0.134553
C      -0.756321    3.369480    1.081941
C       0.101271    3.137880    2.283425
C       0.626843    3.969291    1.100610
C       1.587208    3.332548    0.177045
C       1.302571    2.198148   -0.462210
H      -0.376671    1.150626   -1.277524
H      -1.611039    4.028501    1.178316
H      -0.163779    3.665039    3.193560
H       0.555508    2.166690    2.438504
H       0.728554    5.038538    1.248971
H       2.544256    3.820153    0.016932
H       2.007435    1.716569   -1.130126
