18

C       0.234080    1.569790    0.037796
C       0.088557    0.044478    0.037919
C       0.465828   -0.570171   -1.295431
O       1.901175   -0.387402   -1.591137
C       2.113709   -1.740098   -1.658176
O       3.143914   -2.306705   -1.837803
C       0.645546   -2.106531   -1.423517
C       0.334991   -3.047677   -0.265769
H       1.263737    1.857335   -0.192126
H      -0.419293    2.030484   -0.711077
H      -0.027772    1.987885    1.013750
H       0.714295   -0.388070    0.826246
H      -0.947566   -0.239047    0.263202
H      -0.116962   -0.124695   -2.108204
H       0.201042   -2.488971   -2.347802
H       0.781817   -2.708774    0.672329
H      -0.744585   -3.144477   -0.116234
H       0.736318   -4.041316   -0.483895
