12

O      -0.242003    0.446386    0.813579
C       0.286210    0.817988   -0.199547
C       1.447904    1.772060   -0.192627
O       2.314893    1.717047   -1.319394
C       1.501088    2.884315   -1.202631
C       0.460363    3.079611   -2.179412
C      -0.403892    3.272244   -2.989782
C       2.214445    4.090339   -0.810724
N       2.770109    5.051554   -0.492664
H      -0.027255    0.485689   -1.209325
H       1.919139    1.941396    0.773878
H      -1.168179    3.439229   -3.709848
