20

O       0.186933    1.490550    0.460814
C       0.053602    0.205477   -0.131853
C      -1.324180   -0.401784    0.111155
C      -1.551137   -1.880959   -0.210730
C      -0.796735   -2.763988    0.697197
N      -2.072043   -2.197911    1.183167
C      -1.810513   -0.746336    1.553396
C      -0.952675   -0.533388    2.787868
O      -1.595141   -1.068389    3.933370
H      -0.452277    2.077991    0.044442
H       0.255636    0.236812   -1.214843
H       0.841026   -0.403845    0.319889
H      -2.071224    0.224246   -0.389570
H      -2.053516   -2.256338   -1.096558
H      -0.865967   -3.832789    0.519659
H       0.146582   -2.446384    1.131009
H      -2.788252   -0.299989    1.752704
H       0.053798   -0.961427    2.663014
H      -0.819154    0.538796    2.958483
H      -1.878357   -1.961315    3.704605
