14

O      -0.106889    1.434701    0.047129
C       0.043618    0.072239   -0.036886
C       0.022803   -0.921936    1.117155
N       0.918577   -2.048098    1.018158
C       1.180060   -2.018321   -0.234518
O       0.525312   -2.916313   -1.095182
C      -0.343141   -1.687547   -1.291931
C      -1.037589   -1.001026   -0.046235
C       0.833064   -0.740926   -1.054731
H       0.631643    1.795752    0.550921
H      -0.332128   -0.609929    2.092851
H      -0.902359   -1.762646   -2.221864
H      -2.097362   -0.932851    0.151448
H       1.484016   -0.380060   -1.843391
