21

C      -0.031166    1.489724   -0.433439
C       0.026915    0.153884    0.319752
C      -1.328831   -0.509081    0.371192
O      -1.834083   -1.088156   -0.834241
C      -1.586668   -1.968892    0.286270
C      -0.485234   -2.991393    0.087635
C      -2.773153   -2.486251    0.933633
C      -3.743611   -2.946601    1.478982
C      -4.924878   -3.491350    2.131345
H       0.953057    1.965951   -0.465527
H      -0.370662    1.334769   -1.461774
H      -0.725849    2.186678    0.047638
H       0.755746   -0.506049   -0.158250
H       0.369795    0.318430    1.349464
H      -2.081462    0.066497    0.916208
H       0.359155   -2.565347   -0.455606
H      -0.136949   -3.370074    1.053511
H      -0.870016   -3.838992   -0.487019
H      -4.819567   -4.566928    2.310700
H      -5.106878   -3.008550    3.097893
H      -5.817758   -3.344324    1.513721
