21

O      -0.002575   -0.043595    0.004096
C      -0.000518    1.164015    0.010833
C      -1.276330    2.011355    0.031648
C      -0.905332    3.504359    0.033697
C      -0.048705    3.800619    1.280301
C       1.235343    2.918924    1.260786
C       1.253014    2.026004   -0.002993
C       1.200248    2.930365   -1.257663
C      -0.083417    3.812468   -1.233202
H      -1.885059    1.741779   -0.839867
H      -1.861736    1.733503    0.916429
H      -1.811701    4.118269    0.049087
H       0.212891    4.863648    1.302806
H      -0.634271    3.605302    2.184967
H       2.135827    3.542309    1.255857
H       1.294720    2.294553    2.157497
H       2.131655    1.377300   -0.018205
H       2.100768    3.553545   -1.272379
H       1.234196    2.314157   -2.161318
H      -0.693881    3.625919   -2.123141
H       0.177912    4.875622   -1.252754
