14

C      -0.017213    1.510188    0.096017
C      -0.009615    0.027877    0.003994
C      -0.033729   -0.819932   -1.051280
O      -0.012771   -2.152296   -0.645459
C       0.025129   -2.103589    0.694178
N       0.059358   -2.957607    1.689531
C       0.083642   -2.084609    2.747632
N       0.066355   -0.778992    2.468826
N       0.027987   -0.821700    1.109894
H       0.879518    1.873635    0.608431
H      -0.052741    1.951394   -0.902007
H      -0.884003    1.860787    0.665651
H      -0.065323   -0.652844   -2.112932
H       0.115162   -2.428343    3.770758
