14

O       0.126617    0.065523   -0.157516
C       0.184498    1.250208   -0.267174
O       1.049534    2.000958    0.459285
C       1.022792    3.392768    0.235656
C       2.124666    4.165526    0.843979
C       2.065592    4.022699   -0.680073
C       3.092864    3.175938   -1.339113
O       3.536349    3.398669   -2.437831
H      -0.445696    1.855884   -0.945030
H       0.023604    3.818196    0.209977
H       1.917461    5.138292    1.272513
H       2.893417    3.590640    1.349738
H       1.750750    4.879569   -1.265326
H       3.441038    2.309973   -0.735848
