16

C       0.042199    1.377666    0.041920
O       0.053570   -0.060265    0.038382
C       0.649147   -0.637703    1.084267
O       1.163982   -0.041709    2.002549
C       0.581067   -2.153205    1.026888
O       1.383933   -2.699388    2.051192
C      -0.867938   -2.652717    1.200744
O      -0.880416   -4.055229    1.309236
H       1.063312    1.765706    0.042016
H      -0.479669    1.669916   -0.868469
H      -0.481449    1.753151    0.924026
H       0.955855   -2.499850    0.055724
H       1.597936   -1.960491    2.641560
H      -1.303693   -2.170763    2.092548
H      -1.471997   -2.377138    0.331831
H      -0.203202   -4.269347    1.964322
