13

C      -0.025847    1.439400   -0.000034
N      -0.000376   -0.012273    0.003342
N       0.051912   -0.711434   -1.132736
C       0.076361   -1.973388   -0.711650
C       0.035225   -1.986382    0.694961
C       0.039495   -3.146462    1.595698
O       0.000748   -3.099886    2.800664
N      -0.012640   -0.709930    1.117976
H       0.912931    1.825708   -0.403780
H      -0.854526    1.786702   -0.619753
H      -0.155919    1.765723    1.029973
H       0.117994   -2.793494   -1.411366
H       0.082544   -4.117300    1.052773
