17

C       0.154541    1.604870    0.080136
C      -0.070883    0.096995   -0.055128
N       0.641875   -0.487480   -1.179286
C       2.006636   -0.828187   -1.230800
C       2.199580   -1.280642   -2.502955
O       3.349252   -1.740386   -3.045720
N       1.041297   -1.232271   -3.243654
C       0.150942   -0.748678   -2.407409
O      -1.145669   -0.510738   -2.682130
H       1.216783    1.832507    0.207156
H      -0.203885    2.130286   -0.809519
H      -0.386120    1.990735    0.949926
H       0.251506   -0.421969    0.853693
H      -1.132622   -0.119665   -0.195074
H       2.654669   -0.729444   -0.379032
H       3.138937   -1.982746   -3.955042
H      -1.284353   -0.794874   -3.593704
