21

C       0.044761    1.507800   -0.052415
C      -0.022976    0.009232    0.021038
C      -1.163128   -0.685476   -0.004717
C      -1.182625   -2.167083    0.011060
C      -2.122819   -2.885646    0.961579
C      -2.389696   -2.908725   -0.518621
C       0.190526   -2.748145   -0.266541
O       1.187228   -2.076963    0.484566
C       1.300552   -0.714586    0.125817
H       0.647654    1.839540   -0.908302
H      -0.951079    1.947474   -0.153274
H       0.516741    1.932348    0.843325
H      -2.120038   -0.167805   -0.048114
H      -1.761277   -3.792974    1.434555
H      -2.766219   -2.280409    1.590879
H      -3.216128   -2.320983   -0.904943
H      -2.215698   -3.835132   -1.057618
H       0.245313   -3.803426    0.017920
H       0.413330   -2.672543   -1.345079
H       1.855184   -0.608338   -0.826802
H       1.921697   -0.250062    0.901806
