21

C       0.029568    1.569001    0.022890
C      -0.000769    0.044658   -0.000303
O      -1.372871   -0.344776   -0.043734
C       0.690251   -0.506167   -1.254702
O       0.478999   -1.910890   -1.360264
C       0.879619   -2.666521   -0.244737
C       2.218310   -2.510444    0.416249
C       0.952133   -2.047229    1.127356
C       0.674357   -0.549812    1.258618
H       1.056786    1.946528    0.014476
H      -0.501930    1.971971   -0.843939
H      -0.465232    1.940868    0.925267
H      -1.393589   -1.221351   -0.447489
H       0.238881   -0.078931   -2.154235
H       1.762394   -0.262106   -1.256680
H       0.478496   -3.668920   -0.348577
H       2.717996   -3.408265    0.763171
H       2.893337   -1.739145    0.060090
H       0.611552   -2.661345    1.954476
H       1.603539   -0.007122    1.471301
H      -0.001267   -0.369409    2.099229
