22

C      -0.342522    1.414626    0.000540
C       0.035154   -0.057559   -0.033799
C       1.283923   -0.502134   -0.847517
C       1.614186   -1.519252    0.278586
C       3.075066   -1.717881    0.660659
N       3.244346   -2.582564    1.819675
C       3.839083   -3.804009    1.762204
O       4.327043   -4.304446    0.770882
C       0.685839   -0.702295    1.223471
H       0.510655    2.032282    0.304101
H      -0.672352    1.764232   -0.984270
H      -1.157600    1.600928    0.709005
H      -0.830444   -0.655497   -0.341008
H       1.133377   -0.888389   -1.858421
H       2.031834    0.298920   -0.889590
H       1.166269   -2.494041    0.058755
H       3.628401   -2.192313   -0.153788
H       3.541824   -0.743475    0.860163
H       2.852489   -2.290485    2.700991
H       3.834967   -4.305786    2.750910
H       1.255682    0.043005    1.792879
H       0.037985   -1.248210    1.914591
