14

O      -0.064168    0.076920   -0.037843
C       0.035696    1.261329   -0.005382
O      -1.044930    2.130484    0.010567
C      -0.376874    3.426459    0.049942
C       0.734559    3.263207   -1.021422
C       1.228310    2.207851    0.028186
C       0.719884    3.205530    1.126081
C      -1.332139    4.512568    0.072630
N      -2.047740    5.418585    0.092116
H       0.415490    2.915927   -2.005007
H       1.391519    4.130253   -1.093540
H       2.216699    1.760388    0.022925
H       1.375484    4.067211    1.253599
H       0.387540    2.806073    2.085159
