18

C       0.021959    1.499465    0.010807
N      -0.089817    0.012676    0.003012
H       0.379750   -0.379558   -0.817488
H       0.395001   -0.389226    0.809848
C      -1.507036   -0.551029    0.012938
C      -1.437760   -2.068817    0.003216
N      -2.791988   -2.528135    0.012873
C      -2.829497   -3.852978    0.008304
O      -1.896974   -4.671299   -0.002999
C      -4.223601   -4.375264    0.018784
N      -5.283408   -4.840292    0.026408
H       1.073517    1.789858    0.002677
H      -0.483811    1.887428   -0.873419
H      -0.467097    1.876822    0.908917
H      -1.995447   -0.168602    0.911137
H      -2.012195   -0.157922   -0.871282
H      -0.856629   -2.402855   -0.884321
H      -0.840473   -2.413653    0.875708
