19

C      -0.112939    1.550306   -0.052594
C      -0.101784    0.058615    0.013039
O       0.761084   -0.631887   -0.899734
C      -0.198192   -1.748094   -0.983013
C       0.369375   -3.023444   -0.430804
C       0.738778   -3.057311    0.848761
C       0.603270   -1.861320    1.757592
C      -0.359264   -0.792909    1.235017
C      -1.157552   -1.013414   -0.036073
H       0.866556    1.954893    0.227674
H      -0.343368    1.894697   -1.065779
H      -0.857536    1.961704    0.635011
H      -0.556844   -1.842965   -2.010635
H       0.475315   -3.886492   -1.079976
H       1.160229   -3.960087    1.283179
H       0.266782   -2.202427    2.745050
H       1.595680   -1.418645    1.922841
H      -0.916243   -0.264886    2.005108
H      -2.236590   -0.985244   -0.109433
