16

C      -0.341834    1.641828   -0.156105
C      -0.057840    0.130537   -0.017322
N       0.785468   -0.207967    1.105027
C       0.356006   -0.099784    2.386813
O      -0.755626    0.278015    2.703096
C      -1.390153   -0.651177    0.048633
O      -2.359595   -0.339024   -0.585816
C       0.652995   -0.335933   -1.289648
O       1.738405   -0.855834   -1.291880
H       0.586683    2.193163   -0.325789
H      -1.029511    1.814683   -0.985980
H      -0.809057    1.993195    0.765185
H       1.701469   -0.575804    0.884818
H       1.129612   -0.394312    3.120155
H      -1.349758   -1.556876    0.685369
H       0.085403   -0.134299   -2.218337
