14

O       0.001237    0.011515   -0.033775
C      -0.014703    1.215526    0.009680
C      -1.259202    2.082975   -0.068523
N      -1.382941    3.123599    0.988109
C      -0.815690    3.483898   -0.316627
C       0.713348    3.504967   -0.339562
N       1.329182    3.160970    0.947427
C       1.202523    2.116896   -0.105449
H      -2.153374    1.637468   -0.489971
H      -2.359408    3.412545    1.014849
H      -1.358105    4.147192   -0.980898
H       1.217121    4.182677   -1.019528
H       2.297683    3.476714    0.944989
H       2.095588    1.696016   -0.553707
