17

O      -0.527579    0.580534   -0.491721
C       0.306753    0.914752    0.305197
C       1.307544    2.054179    0.077706
C       1.084697    2.802601   -1.205073
C       1.119747    4.130510   -1.288028
C       1.323592    5.022366   -0.091272
C       0.844667    4.340875    1.203065
C       1.355012    2.921705    1.346349
O       1.735456    2.452079    2.392750
H       0.431995    0.409312    1.285227
H       2.282558    1.538427    0.066129
H       0.906310    2.193697   -2.085416
H       0.992307    4.611405   -2.254003
H       2.384065    5.297690   -0.000993
H       0.784115    5.965826   -0.225807
H       1.115744    4.899658    2.101474
H      -0.252364    4.269951    1.170010
