17

O       0.192797    1.197017   -0.184595
C      -0.064899   -0.135912    0.199668
C      -1.566519   -0.450785    0.082529
O      -2.013504   -0.084388   -1.230508
C      -2.520229   -1.226689   -1.927993
C      -2.442404   -2.349179   -0.932902
C      -1.907283   -1.915468    0.202474
C      -2.363164    0.362321    1.114197
O      -2.097802    0.384704    2.285660
H      -0.209819    1.304217   -1.055247
H       0.496815   -0.858406   -0.412163
H       0.243636   -0.242170    1.243444
H      -3.547498   -1.023800   -2.263032
H      -1.915901   -1.419513   -2.827461
H      -2.773709   -3.356514   -1.150518
H      -1.725076   -2.476634    1.108828
H      -3.232309    0.902351    0.678691
