23

C      -0.141779    1.955241    0.180378
C       0.198901    0.488199   -0.108109
C       0.356423   -0.328710    1.171429
C      -0.899090   -0.709291    2.025894
C      -0.337295   -2.144545    2.173448
O      -0.930155   -3.074799    1.248643
C       0.171706   -2.915180    0.313456
C      -0.291603   -2.714090   -1.116032
C       0.825527   -1.817357    1.194506
H       0.645968    2.436057    0.771304
H      -0.260300    2.526377   -0.745542
H      -1.076648    2.040500    0.745082
H      -0.583290    0.058978   -0.741401
H       1.129195    0.434926   -0.689162
H       1.056989    0.211413    1.821155
H      -1.024161   -0.141770    2.951555
H      -1.845169   -0.710282    1.477847
H      -0.217454   -2.563453    3.176238
H       0.805311   -3.815209    0.349946
H       0.558794   -2.499707   -1.772045
H      -0.773459   -3.629355   -1.475638
H      -1.015745   -1.902195   -1.198537
H       1.880619   -1.980489    1.416725
