20

C      -0.019154    1.548535   -0.029993
C      -0.022024    0.020754    0.071542
C      -1.411331   -0.591934   -0.057935
C      -1.414327   -2.111993   -0.023273
O      -2.743535   -2.591532   -0.051103
C      -3.440181   -2.193274    1.112770
C      -3.355664   -0.706062    1.399190
N      -4.272856   -0.133738    2.054793
O      -2.216626   -0.061931    1.021690
H       0.994613    1.943780    0.080154
H      -0.404614    1.880404   -1.000151
H      -0.645255    1.989606    0.749194
H       0.609596   -0.408921   -0.716092
H       0.408014   -0.293793    1.030264
H      -1.879214   -0.269598   -0.999480
H      -0.910397   -2.509893   -0.908483
H      -0.885753   -2.474337    0.875032
H      -4.487199   -2.469346    0.988965
H      -3.045067   -2.727108    1.994598
H      -4.032873    0.847293    2.214676
