19

C      -0.095621    1.521707    0.080489
C       0.016083   -0.010383   -0.023666
C       0.714504   -0.455392   -1.223227
C       1.297821   -0.788035   -2.227660
C       1.968593   -1.259123   -3.377260
C       2.515773   -0.564972   -4.381582
C       3.119579   -1.500221   -5.384917
O       2.876586   -2.809100   -4.876994
C       2.172687   -2.738654   -3.644697
H       0.895431    1.982805    0.100564
H      -0.640899    1.930270   -0.774465
H      -0.626085    1.802677    0.994983
H       0.532867   -0.402523    0.862239
H      -0.987930   -0.454502   -0.003936
H       2.533468    0.512181   -4.479130
H       2.665229   -1.395096   -6.383771
H       4.203351   -1.341036   -5.508556
H       2.755211   -3.219713   -2.844589
H       1.214194   -3.273719   -3.721713
