19

C      -0.057119    1.553060   -0.184297
C      -0.028164    0.053701   -0.010673
N       1.303092   -0.601634   -0.146153
C       0.619900   -0.616135    1.129620
C       1.147746   -0.202891    2.490323
C      -0.100647   -0.777136    3.233044
C       0.825365   -1.593307    4.125563
N       1.578668   -1.674888    2.800527
C       0.210782   -1.748742    2.050229
H       0.829276    2.007130    0.266201
H      -0.070605    1.821723   -1.245958
H      -0.947451    1.984990    0.285733
H      -0.874994   -0.475382   -0.448589
H       1.226364   -1.501409   -0.614509
H       1.783595    0.631261    2.787700
H      -1.045835   -0.267073    3.447831
H       1.381519   -1.070735    4.910631
H       0.473386   -2.564769    4.488198
H      -0.251731   -2.714110    1.834595
