21

O      -0.006685    1.425905    0.038647
C       0.047674    0.009100    0.035655
C       0.876144   -0.557684    1.192867
C       0.799371   -2.089195    1.198010
C      -0.626733   -2.545797    1.534184
C      -1.700267   -1.945009    0.601082
C      -2.825377   -1.171415    1.323957
O      -2.220427    0.099386    0.993211
C      -1.373443   -0.547138    0.004868
H      -0.666408    1.665623    0.702439
H       0.538944   -0.271766   -0.905783
H       1.906766   -0.203286    1.095366
H       0.488244   -0.164735    2.141989
H       1.103040   -2.478090    0.215821
H       1.500795   -2.509571    1.926439
H      -0.694875   -3.638478    1.515833
H      -0.838331   -2.244214    2.567657
H      -2.035874   -2.677529   -0.135598
H      -3.817301   -1.269838    0.862544
H      -2.913697   -1.316383    2.406381
H      -1.804271   -0.401500   -0.995700
