19

N       0.043277    1.387036   -0.145127
C      -0.019749    0.013221   -0.011669
C      -1.190294   -0.663463    0.067491
C      -1.244419   -2.109396    0.061164
C       0.044771   -2.860382   -0.180617
C       1.222514   -2.130494    0.475752
C       1.316637   -0.689733   -0.040868
N      -2.295675   -2.835354    0.227251
O      -3.453682   -2.046196    0.417673
H       0.858475    1.841093    0.238641
H      -0.812921    1.892650    0.029701
H      -2.129059   -0.125513    0.124283
H      -0.057018   -3.883147    0.189532
H       0.223774   -2.924913   -1.263488
H       1.081532   -2.117618    1.562962
H       2.160818   -2.659037    0.279299
H       1.697072   -0.678487   -1.072112
H       2.043213   -0.116883    0.551432
H      -4.133575   -2.720454    0.508000
