16

C      -0.091359    1.629702    0.031167
C      -0.050945    0.100455   -0.020380
N      -1.385015   -0.507499   -0.007645
C      -2.052672   -0.708721   -1.282978
C      -1.931444   -0.790393    1.201519
O      -1.401801   -0.581998    2.277021
C      -3.274490   -1.408385    1.164997
N      -4.323362   -1.890801    1.221386
H       0.925782    2.030883   -0.007006
H      -0.650033    2.048446   -0.811653
H      -0.557647    1.964927    0.960806
H       0.454666   -0.245649   -0.927620
H       0.491329   -0.287894    0.843782
H      -3.044118   -1.134792   -1.129136
H      -2.164347    0.242555   -1.815329
H      -1.472406   -1.392209   -1.913230
