21

C      -0.039514    1.553399    0.370893
C       0.003737    0.086065   -0.081903
O       1.006118   -0.607816    0.645558
C      -1.383435   -0.574569   -0.027092
C      -2.426234    0.128250   -0.890486
C      -1.660449   -2.076442    0.035377
C      -0.758548   -2.818583    1.013272
O      -1.001930   -1.818142    2.054020
C      -1.978426   -1.171876    1.213630
H       0.981206    1.943113    0.392681
H      -0.632885    2.183054   -0.298057
H      -0.459081    1.634857    1.380385
H       0.338282    0.055094   -1.128447
H       0.632929   -0.797197    1.517773
H      -2.098960    0.169262   -1.935464
H      -3.382761   -0.403162   -0.865207
H      -2.610376    1.151942   -0.553697
H      -2.327910   -2.554806   -0.669783
H      -1.183398   -3.778531    1.326869
H       0.300790   -2.920425    0.775140
H      -2.907799   -0.868601    1.685215
