17

C       0.059862   -3.778938   -0.041928
C       0.048401   -2.570375   -0.027443
C       0.032748   -1.212384   -0.008546
C       0.030909    0.001358   -0.000584
C       0.001429    1.415418    0.046923
C       0.278147    2.286050   -1.164269
C       1.174909    2.437178    0.020712
C       0.492669    3.268830    1.109947
C      -0.700150    2.260072    1.132193
H       0.072972   -4.840133   -0.057325
H       0.701472    1.760217   -2.012758
H      -0.431826    3.069117   -1.423001
H       2.232836    2.212851   -0.035969
H       1.042579    3.273043    2.052700
H       0.259920    4.302717    0.835981
H      -1.686483    2.644777    0.856020
H      -0.780314    1.730707    2.082494
