17

O       0.765362   -0.812515   -1.057150
C       0.141906   -0.080442   -0.020383
C      -1.350192   -0.352525    0.024213
C      -2.288408    0.427492    0.982372
C      -3.059900    0.854894   -0.272317
C      -2.162778    1.555547   -1.219381
N      -2.126714    0.084825   -1.210916
C      -4.485449    0.839013   -0.404229
N      -5.640155    0.838237   -0.475044
H       0.279467   -0.635094   -1.870679
H       0.597308   -0.414508    0.918826
H       0.347071    0.999055   -0.106834
H      -1.500254   -1.430929    0.111168
H      -2.856069   -0.220979    1.649005
H      -1.860943    1.250867    1.561010
H      -2.606850    1.951629   -2.126423
H      -1.335370    2.137079   -0.821071
