17

C       0.039546    1.493814   -0.123196
C       0.022029    0.000277    0.036996
O       0.437220   -0.637415   -1.194732
C       0.371086   -1.974003   -0.895663
O       0.639520   -2.852085   -1.659780
C      -0.095652   -1.980193    0.539733
C       0.646761   -0.782150    1.236561
C      -0.627487   -0.507360    2.070588
C      -1.155135   -0.823790    0.650627
H       1.045861    1.835655   -0.381601
H      -0.637834    1.797072   -0.926625
H      -0.270058    1.992592    0.797942
H      -0.237273   -2.932876    1.042886
H       1.688888   -0.771481    1.558155
H      -0.860040   -1.247814    2.838390
H      -0.774867    0.505606    2.451831
H      -2.186542   -0.861022    0.297951
