16

C      -0.025828    1.386438   -0.329644
O       1.186641    1.690312    0.388335
C       1.430716    0.296678    0.664239
C       0.067346   -0.108733    0.056078
N      -0.927442   -0.592669    0.983326
C      -1.339651   -0.066816    2.164096
C      -2.298432   -0.944699    2.606552
N      -2.426520   -1.947674    1.694382
N      -1.598850   -1.735906    0.713580
H      -0.895345    1.923162    0.064686
H       0.068138    1.582847   -1.404351
H       2.301143   -0.087849    0.119356
H       1.550654    0.093112    1.733727
H       0.089632   -0.825413   -0.762398
H      -0.931496    0.845350    2.566213
H      -2.890749   -0.915591    3.506567
