23

C      -0.051319    1.542070   -0.042712
C      -0.010309    0.012910    0.014666
C       0.621571   -0.450620    1.337802
O      -1.376789   -0.403303   -0.041662
C       0.764456   -0.525019   -1.215507
C       0.851655   -2.046161   -1.345814
O      -0.449087   -2.673365   -1.386164
C       1.639901   -2.497992   -2.577367
O       1.663628   -3.904237   -2.678853
H       0.954195    1.968063    0.024308
H      -0.512045    1.876614   -0.976809
H      -0.649718    1.928380    0.787058
H       0.069252   -0.019984    2.177452
H       0.583483   -1.539703    1.441004
H       1.668865   -0.139325    1.416730
H      -1.370518   -1.367867   -0.097239
H       0.285138   -0.119300   -2.117586
H       1.786844   -0.126550   -1.199650
H       1.327954   -2.486762   -0.463837
H      -0.963612   -2.220123   -2.066828
H       1.197607   -2.032814   -3.477986
H       2.677896   -2.154619   -2.509530
H       0.767341   -4.193891   -2.465006
