16

N      -0.038793    1.563326   -0.102426
C      -0.012897    0.303904   -0.150803
C      -1.218523   -0.567920    0.048474
C      -2.521007    0.226014    0.238781
C      -3.669722   -0.651370    0.425505
C      -4.600718   -1.395692    0.578338
O       1.105334   -0.481313   -0.433016
C       2.310992   -0.145808    0.113094
O       3.319549   -0.691140   -0.203599
H       0.858942    1.997357   -0.313293
H      -1.297323   -1.239967   -0.813745
H      -1.035808   -1.221617    0.909758
H      -2.413905    0.898963    1.096191
H      -2.677617    0.877129   -0.628156
H      -5.433928   -2.039734    0.714052
H       2.222838    0.644398    0.877879
