16

C      -0.026206    1.489119    0.099260
C      -0.008353   -0.003836    0.032368
C      -0.023061   -0.779052   -1.067213
C       0.003227   -2.249510   -0.758424
C       0.038008   -2.290330    0.778020
O       0.067067   -3.280135    1.461296
C       0.029831   -0.845704    1.231729
N       0.050109   -0.334500    2.411805
O       0.085197   -1.271888    3.422741
H       0.858709    1.864476    0.624653
H      -0.056001    1.929821   -0.900160
H      -0.894207    1.841617    0.666960
H      -0.050950   -0.393233   -2.080080
H      -0.876074   -2.793113   -1.126396
H       0.879194   -2.770013   -1.165651
H       0.096116   -0.721264    4.214851
