21

C      -0.487139    1.386131   -0.290844
C       0.110952    0.005917    0.021241
C       1.157039   -0.402439   -1.029917
C       0.783231    0.047264    1.397310
O       1.663531    0.846082    1.653218
N       0.312686   -0.892244    2.291239
C       0.696150   -1.154747    3.616106
C       1.784709   -0.309313    4.221866
N       0.062890   -2.107419    4.180544
H       0.292572    2.150159   -0.234634
H      -0.918012    1.396958   -1.296434
H      -1.275659    1.652366    0.420069
H      -0.694536   -0.738784    0.026423
H       1.992391    0.302944   -1.017957
H       1.553918   -1.403853   -0.835227
H       0.713231   -0.401450   -2.029960
H      -0.423118   -1.511993    1.982517
H       1.512356    0.748316    4.211710
H       1.961890   -0.635598    5.249050
H       2.708887   -0.386127    3.644817
H       0.393855   -2.237376    5.134794
