20

C      -0.058497    1.564723    0.087813
C       0.012372    0.028707    0.043045
C       0.702203   -0.516201    1.308154
C      -1.404693   -0.551123   -0.073666
N       0.731192   -0.399209   -1.176275
C       2.052796   -0.115557   -1.426599
N       2.565227   -0.791474   -2.535839
O       2.743016    0.630805   -0.753294
H       0.944367    1.990286    0.128229
H      -0.567580    1.950877   -0.800871
H      -0.617399    1.887494    0.971954
H       0.154068   -0.208485    2.204710
H       0.734793   -1.610927    1.289491
H       1.723811   -0.138636    1.373604
H      -1.904191   -0.188809   -0.978117
H      -1.384917   -1.647300   -0.103737
H      -2.006193   -0.255205    0.789903
H       0.370810   -1.233585   -1.613216
H       1.931410   -0.965331   -3.302384
H       3.450208   -0.404882   -2.829379
