17

C      -0.372372   -1.206610    0.221155
C      -0.209437   -0.016824    0.153553
C      -0.035127    1.404289    0.026659
C       0.647080    2.180917    1.114223
N       1.297388    2.004869   -0.176095
C       2.447598    1.111252   -0.225940
C       3.722349    1.951229   -0.027425
C       4.933935    1.139462   -0.096869
N       5.882687    0.482480   -0.154601
H      -0.516332   -2.256735    0.290540
H      -0.814420    1.904904   -0.543104
H       0.309235    3.186374    1.348235
H       1.017692    1.604160    1.959879
H       2.407431    0.309118    0.524888
H       2.471613    0.634369   -1.210340
H       3.765558    2.735318   -0.790143
H       3.690374    2.454563    0.945611
