14

O      -0.991068    1.277311    0.495958
C       0.076296    0.921447    0.076785
C       1.253111    1.873171   -0.096259
O       2.476126    1.141388   -0.113595
C       3.261123    1.502676   -1.185913
O       4.351945    1.067512   -1.360250
N       2.577133    2.451280   -2.016744
C       1.400690    1.815144   -2.672634
C       1.239770    2.612201   -1.435122
H       0.284841   -0.123224   -0.241016
H       1.257452    2.587141    0.733867
H       1.140281    2.251462   -3.630296
H       1.323926    0.732713   -2.621626
H       0.800591    3.602046   -1.464022
