18

C      -0.112531    1.598474    0.034054
C       0.140088    0.109150   -0.058944
O       1.417417   -0.209455   -0.676831
C       1.816681   -1.065803    0.411430
C       0.568884   -0.658497    1.194239
C       0.437801   -0.320113    2.644595
N      -0.269973   -1.443402    2.059375
C      -0.074846   -2.765259    2.429807
O       0.100665   -3.144200    3.560661
H       0.685085    2.095255    0.593834
H      -0.155505    2.034710   -0.968371
H      -1.069469    1.793446    0.530044
H      -0.680502   -0.394345   -0.589624
H       1.858360   -2.121955    0.114091
H       2.782200   -0.774348    0.840851
H       1.271262   -0.553540    3.303329
H      -0.178238    0.520016    2.953339
H      -0.167894   -3.450227    1.565766
