15

O      -0.232993    0.220667   -0.632963
C       0.049846    1.065426    0.185104
C       1.268730    1.884525    0.140834
C       1.675698    3.034013    1.057849
O       2.138984    3.831941   -0.069218
C       1.734363    2.832804   -0.977972
C       2.444825    1.530238   -0.785811
C       3.787279    1.434697   -0.294154
C       4.910197    1.351078    0.126796
H      -0.630269    1.295614    1.035621
H       0.821991    3.522876    1.539396
H       2.472099    2.841166    1.782220
H       1.240739    3.128940   -1.897034
H       2.131326    0.770804   -1.498889
H       5.907682    1.279818    0.484262
