11

O       0.114668    1.344062   -0.069106
C       0.070747    0.000264   -0.063242
C      -0.022704   -0.819975   -1.170622
N      -0.033120   -2.092079   -0.653790
C       0.050862   -1.988722    0.702304
N       0.115885   -0.717650    1.084411
C       0.063863   -3.126129    1.545522
N       0.071796   -4.080557    2.201811
H       0.179186    1.625587    0.852176
H      -0.079161   -0.615794   -2.224856
H      -0.092435   -2.950470   -1.177102
