16

C      -0.020643    1.523730   -0.017448
C      -0.049414    0.024783    0.010077
C      -1.174580   -0.719781   -0.114351
C      -1.143387   -2.155405   -0.073708
N      -2.335416   -2.875239   -0.283647
C       0.066516   -2.735803    0.091720
O       1.214520   -2.023581    0.189504
C       1.244305   -0.638295    0.171146
O       2.311296   -0.086718    0.283295
H       0.621648    1.881926   -0.828729
H      -1.023335    1.937837   -0.147818
H       0.410994    1.918428    0.908396
H      -2.135605   -0.230754   -0.256674
H      -3.113797   -2.506979    0.249727
H      -2.240079   -3.864398   -0.091095
H       0.244576   -3.803004    0.142853
