14

O       0.014335   -0.063087    0.003902
C       0.040129    1.146965    0.009142
N      -1.058432    1.999943    0.028790
C      -0.755147    3.430259    0.030679
C       0.745173    3.401616    0.009359
C       1.157745    2.110374   -0.002268
O       2.501872    2.007680   -0.021688
C       2.954493    3.295934   -0.022270
C       1.926947    4.198775   -0.003727
H      -1.992900    1.628585    0.039699
H      -1.181283    3.934410   -0.846960
H      -1.156282    3.926750    0.924318
H       4.026373    3.407763   -0.036893
H       2.029003    5.272585   -0.000341
