19

C       0.058550    1.486687    0.096399
C       1.338655    0.724406   -0.009137
O       1.689605    0.103709    1.225742
C       0.473288   -0.703646    1.180879
C       0.748629   -2.181004    0.930093
C      -0.474042   -2.848038    0.265783
C      -0.946455   -2.084569   -0.951550
C      -0.703720   -0.780808   -1.124944
C       0.000191   -0.015600   -0.095331
H      -0.228806    1.937210    1.043744
H      -0.211955    2.059775   -0.786643
H       2.125847    0.905492   -0.732381
H      -0.139045   -0.546779    2.078176
H       1.606419   -2.251610    0.253022
H       1.020460   -2.691297    1.859555
H      -0.219543   -3.875942   -0.017048
H      -1.296369   -2.941273    0.990956
H      -1.501087   -2.636966   -1.704870
H      -1.043866   -0.262538   -2.017459
