15

O       0.080284    1.379544   -0.144828
C      -0.002529   -0.021649   -0.039519
C       0.607771   -0.519814    1.277750
N       1.736521   -0.110838    1.690940
N      -0.325023   -1.376395    1.845001
C      -1.528018   -1.318007    1.133461
C      -1.430969   -0.545053    0.034379
C      -2.416564   -0.307542   -0.939492
C      -3.237451   -0.083109   -1.793530
H       0.931813    1.618175    0.248257
H       0.521463   -0.507936   -0.880022
H       1.985963   -0.482805    2.607916
H      -0.265127   -1.698349    2.797620
H      -2.378417   -1.889538    1.476497
H      -3.965415    0.118666   -2.539199
