18

C       0.040224    1.539906   -0.072019
C       0.056436    0.084648   -0.029979
C       0.069193   -1.118962    0.001627
C       0.073582   -2.578554    0.049090
C       0.713943   -3.104917    1.344158
O      -0.092079   -2.804166    2.487012
C      -1.431902   -2.901179    2.302541
N      -2.084843   -3.091755    1.238094
C      -1.354226   -3.175967   -0.019882
H       0.649426    1.921803   -0.898722
H      -0.977809    1.921715   -0.206242
H       0.434692    1.968389    0.855900
H       0.662119   -2.964514   -0.793391
H       0.837358   -4.193589    1.277079
H       1.686741   -2.648284    1.533049
H      -1.942197   -2.781290    3.256387
H      -1.936883   -2.659796   -0.788520
H      -1.294360   -4.229114   -0.324471
