22

O       0.002316    1.433640   -0.020505
C       0.035526    0.013074   -0.004102
C      -1.400779   -0.499036   -0.008382
C      -2.159505   -0.118984   -1.285352
C      -3.632643   -0.518659   -1.146502
C      -3.813198   -1.949488   -0.669871
C      -3.109670   -3.082982   -1.323872
N      -2.736178   -2.670214    0.028533
C      -1.424351   -2.021599    0.204955
H       0.907067    1.756277   -0.059544
H       0.570073   -0.381474   -0.884607
H       0.559283   -0.359677    0.891342
H      -1.911293   -0.020415    0.839400
H      -2.074543    0.956274   -1.461288
H      -1.698825   -0.617821   -2.149396
H      -4.105588    0.149926   -0.415603
H      -4.172978   -0.373714   -2.089894
H      -4.795760   -2.152645   -0.245194
H      -3.582843   -4.058954   -1.407145
H      -2.422824   -2.849628   -2.136574
H      -0.702141   -2.493055   -0.476600
H      -1.082641   -2.248275    1.222427
