18

C      -0.037261    1.561508   -0.034941
C       1.493597    1.883931   -0.010754
C       2.007631    0.464920    0.100897
C       3.377950   -0.167791    0.052546
C       3.094563   -1.474648    0.059616
C       1.571309   -1.511212    0.103893
C       1.100838   -0.387823    1.059140
C       0.011172    0.031468    0.061357
N       1.140885   -0.396775   -0.884845
H      -0.579398    2.012254    0.801741
H      -0.514350    1.889649   -0.962537
H       1.833128    2.372967   -0.927662
H       1.787222    2.505865    0.839599
H       4.330312    0.339094   -0.000259
H       3.760977   -2.324411    0.012010
H       1.048175   -2.464389    0.019290
H       1.091107   -0.380377    2.157787
H      -0.924606   -0.522539   -0.030652
