14

N       0.133174    1.389571    0.146134
C      -0.035616    0.000373    0.034936
C      -1.149962   -0.802931    0.041542
C      -0.668647   -2.159282    0.003719
C       0.703753   -2.083225   -0.030396
N       1.125233   -0.791655   -0.028497
O       1.313513   -3.260391   -0.096467
N       0.263882   -4.237182   -0.101728
C      -0.867282   -3.563905   -0.045302
H       0.428718    1.822306   -0.724577
H      -0.724744    1.834893    0.446142
H      -2.169976   -0.452895    0.047772
H       2.054546   -0.445329    0.137166
H      -1.784216   -4.137414   -0.041251
