19

C      -0.174766    1.610232   -0.168119
C       0.007141    0.088928   -0.050378
C       0.848394   -0.526798   -1.153371
C       1.820925   -1.312685   -0.686995
C       1.870368   -1.318029    0.801738
C       2.162981   -0.004342    1.457477
C       0.711051   -0.380076    1.228349
C      -0.087556   -0.756752    2.414724
O       0.368890   -1.083142    3.486197
H       0.787114    2.129899   -0.125354
H      -0.655788    1.872435   -1.116028
H      -0.802870    1.993748    0.642149
H      -0.998060   -0.363449   -0.072431
H       0.657482   -0.318801   -2.200691
H       2.523154   -1.875181   -1.291818
H       2.058299   -2.229206    1.358918
H       2.469639   -0.027269    2.497500
H       2.587030    0.786560    0.848859
H      -1.189913   -0.735899    2.248410
