20

C       0.182716    1.548903    0.000710
N       1.288158    0.588577   -0.064632
C      -0.097576    0.081014    0.034421
C      -0.471365   -0.658997    1.265184
C      -1.480329   -1.533805    1.277690
C      -1.857286   -2.313646    2.508121
C      -0.725077   -2.242626    3.535021
O      -0.268266   -0.911315    3.690715
C       0.342166   -0.411124    2.516864
H       0.137838    2.136718    0.913070
H      -0.104061    2.090505   -0.897333
H       1.629324    0.498863   -1.017271
H      -0.545756   -0.320588   -0.873043
H      -2.062636   -1.700288    0.373407
H      -2.786182   -1.917622    2.942062
H      -2.060964   -3.361516    2.252064
H      -1.056661   -2.572503    4.523692
H       0.105216   -2.896102    3.218470
H       1.349965   -0.839087    2.384226
H       0.482415    0.661618    2.685500
