21

C      -0.411241    1.491372   -0.122415
C      -0.064091    0.006505   -0.048402
C       1.182388   -0.423822   -0.884815
C       2.015548   -0.503728    0.410177
O       2.752744    0.705255    0.567962
C       2.828916    1.113519    1.908155
O       1.573544    1.448783    2.431689
C       0.740676    0.297828    2.532903
C       0.692737   -0.495338    1.231750
H       0.459410    2.117580    0.080512
H      -0.790894    1.738814   -1.120126
H      -1.191083    1.755017    0.600877
H      -0.962040   -0.581528   -0.262086
H       1.060059   -1.400278   -1.360591
H       1.557536    0.291626   -1.620134
H       2.685883   -1.363834    0.544144
H       3.297774    0.322873    2.526063
H       3.439403    2.018247    1.929323
H       1.119745   -0.349795    3.341971
H      -0.249800    0.656602    2.828567
H       0.387896   -1.522966    1.454227
