20

C      -0.139035    1.533820   -0.026351
C       0.045920    0.017406   -0.013359
C       0.853458   -0.547827   -1.194344
C       1.247465   -1.951857   -0.719183
C       1.631602   -1.751454    0.772223
C       0.796230   -0.515351    1.236189
C       1.329108   -2.980046    1.593456
O       2.136850   -3.654212    2.177780
H       0.830501    2.045349   -0.006147
H      -0.671523    1.862409   -0.925124
H      -0.712724    1.874569    0.842086
H      -0.947061   -0.451963   -0.039635
H       0.290046   -0.554976   -2.132482
H       1.753244    0.060763   -1.356572
H       0.379771   -2.621327   -0.793968
H       2.057388   -2.407681   -1.293911
H       2.702327   -1.552235    0.862754
H       1.467866    0.248270    1.640950
H       0.098200   -0.771368    2.041194
H       0.240659   -3.237529    1.620052
