16

C      -0.000151    1.607621    0.286194
C      -0.023268    0.115474   -0.093270
C      -1.398639   -0.444743   -0.178690
C      -2.181625   -0.971213   -1.172628
C      -1.826367   -1.153774   -2.581298
O      -2.549903   -1.620129   -3.427984
N      -3.423057   -1.328268   -0.637811
C      -3.332108   -1.010757    0.602246
O      -2.134963   -0.466468    0.967959
H       1.031033    1.963898    0.356414
H      -0.521378    2.209913   -0.463350
H      -0.485726    1.771075    1.251704
H       0.472190   -0.037481   -1.056013
H       0.545743   -0.459028    0.648456
H      -0.794706   -0.816298   -2.829038
H      -4.067290   -1.116921    1.384634
