16

O       0.102969    1.295236   -0.054375
C      -0.125807   -0.074040   -0.162051
C      -0.355365   -0.920465    1.058334
N      -1.014952   -0.026529    2.045172
C      -2.226238    0.053381    1.161933
C      -2.724241    1.440903    0.816595
O      -3.543025    1.634711   -0.045922
C      -1.481346   -0.714659    0.047281
O      -2.075902   -1.606665   -0.810337
H       0.110336    1.483114    0.896529
H       0.452299   -0.549640   -0.950197
H       0.233331   -1.779182    1.356273
H      -1.219380   -0.511866    2.911436
H      -3.061336   -0.550705    1.532202
H      -2.283909    2.268830    1.414876
H      -2.364513   -1.124053   -1.594749
