15

N      -0.045601    1.269549   -0.028141
C      -0.029794    0.014954   -0.006687
O       1.101041   -0.791690   -0.004306
C       0.603645   -2.133336    0.014300
C      -0.630555   -2.063215   -0.886302
C      -1.214895   -0.940596    0.014905
C      -1.120950   -1.649403    1.359070
N      -1.923443   -1.594751    2.322260
O       0.051793   -2.392123    1.308996
H       0.903583    1.647968   -0.042785
H       1.417015   -2.826164   -0.180171
H      -0.402989   -1.742973   -1.903661
H      -1.216123   -2.983253   -0.885893
H      -2.175849   -0.490421   -0.204239
H      -1.605637   -2.179377    3.097874
