17

C       0.005861    1.465851   -0.031735
C       0.007931   -0.027086    0.020892
O       0.203411   -0.669127   -1.239304
C       0.143933   -2.044646   -0.832253
C       1.160099   -2.117841    0.329024
C       0.600241   -0.904670    1.076851
C      -0.935893   -0.890466    0.853637
C      -1.188448   -2.069445   -0.032261
O      -2.118330   -2.823822   -0.107434
H       0.952251    1.831820   -0.442531
H      -0.807180    1.830857   -0.666216
H      -0.121441    1.884556    0.969935
H       0.237105   -2.714199   -1.681590
H       1.086397   -3.054424    0.889017
H       2.190274   -1.967202   -0.005007
H       1.028097   -0.512741    1.989626
H      -1.645073   -0.503567    1.570001
