14

C      -0.141753    1.446819   -0.074978
C      -0.061974   -0.046509    0.103115
N      -0.128875   -0.733097    1.167365
O       0.104364   -0.648947   -1.097338
C       0.197142   -2.069113   -1.090117
C       0.376283   -2.517527   -2.526706
O       0.486268   -3.670963   -2.846346
H       0.771080    1.818958   -0.549899
H      -0.976822    1.703641   -0.733769
H      -0.275745    1.947494    0.884805
H      -0.254099   -0.131512    1.977938
H       1.041782   -2.405896   -0.477723
H      -0.704499   -2.520832   -0.660159
H       0.397579   -1.686466   -3.266021
