19

C      -0.635983    1.355700    0.066452
C       0.087050    0.009451   -0.018730
C       1.129278    0.026252   -1.160108
O       2.132549   -0.980591   -1.038189
C       2.566974   -1.152310    0.301712
C       1.423206   -1.785003    1.149727
C       0.825313   -0.350216    1.299905
C       2.286440    0.121085    1.161343
O       2.962672    0.965308    1.669323
H       0.059255    2.158584    0.335008
H      -1.098510    1.617428   -0.891317
H      -1.426029    1.327950    0.822931
H      -0.647710   -0.782253   -0.210079
H       0.658911   -0.124966   -2.135126
H       1.614536    1.015704   -1.170715
H       3.561191   -1.599527    0.286768
H       0.810979   -2.516260    0.618562
H       1.781568   -2.195823    2.096755
H       0.260853   -0.078824    2.193542
