21

C      -0.105631    1.574679    0.065558
C       0.066318    0.067148   -0.001948
C       0.812170   -0.637669   -1.186192
C       2.085568    0.146994   -1.537271
C       3.017226    0.217917   -0.302822
O       2.328492    0.120918    0.948152
C       1.126524   -0.634267    0.896443
C       1.187160   -1.759405   -0.183821
O       0.130488   -2.693981   -0.084982
H       0.854087    2.097333    0.087517
H      -0.680321    1.947353   -0.789911
H      -0.649073    1.857455    0.973866
H      -0.892887   -0.435513    0.139350
H       0.236307   -0.925083   -2.068882
H       2.624847   -0.340132   -2.357515
H       1.814287    1.148817   -1.885044
H       3.761898   -0.588067   -0.359913
H       3.569365    1.162109   -0.273873
H       0.876405   -0.901416    1.927738
H       2.150886   -2.266845   -0.322893
H       0.278579   -3.227260    0.703058
