16

C       0.060703    1.480090    0.060440
N      -0.031617    0.017307    0.026608
C      -1.378580   -0.533726   -0.017529
C      -1.277126   -2.098575   -0.045036
O      -2.525526   -2.725115   -0.056179
C      -2.110464   -0.169376    1.213762
N      -2.688186    0.041560    2.191178
C      -2.162619   -0.073156   -1.195274
N      -2.674426    0.308915   -2.158111
H       1.117626    1.755011    0.063879
H      -0.432473    1.975617   -0.788269
H      -0.386460    1.849332    0.987592
H       0.482947   -0.345745   -0.769771
H      -0.769576   -2.379471   -0.972999
H      -0.645286   -2.383973    0.804913
H      -2.928496   -2.634038    0.815177
