20

O      -0.106588    1.405636    0.213602
C      -0.019405    0.013296   -0.059169
C      -1.424945   -0.556533   -0.027522
C      -1.434895   -2.094258   -0.031104
C      -1.732944   -2.136759    1.433553
C      -2.044953   -0.611399    1.409126
C      -3.571487   -0.553579    1.322344
C      -3.882633   -1.775670    0.418691
N      -2.694619   -2.661008    0.474511
H       0.783415    1.769671    0.207098
H       0.433740   -0.170835   -1.047183
H       0.605421   -0.502469    0.688499
H      -2.030831   -0.050606   -0.789250
H      -0.812120   -2.738567   -0.644600
H      -1.352706   -2.754345    2.238491
H      -1.583050    0.046604    2.143577
H      -4.024394   -0.670753    2.313154
H      -3.930265    0.388691    0.896953
H      -4.748290   -2.342579    0.772208
H      -4.078904   -1.489515   -0.619152
