14

O       0.404770    1.160690   -0.198083
C       0.012223   -0.094648    0.271648
C      -1.421481   -0.395059   -0.106678
O      -2.154584    0.385939   -0.637247
O      -1.746598   -1.691285    0.216786
C      -3.057515   -2.110997    0.261314
N      -3.980881   -1.435580    0.781220
C      -3.204730   -3.498355   -0.326139
O      -4.261816   -4.070377   -0.319809
H      -0.398177    1.599578   -0.512423
H       0.658605   -0.883663   -0.136164
H       0.080408   -0.168747    1.369899
H      -4.846730   -1.980373    0.721655
H      -2.281000   -3.934732   -0.753022
