11

O       0.023730    1.456263    0.106793
C       0.027941    0.069944    0.032056
C       0.723559   -0.409529   -1.240053
O       1.147179    0.388095   -2.036638
C       0.725241   -0.537812    1.257550
F       0.159907   -0.133083    2.391276
F       0.643050   -1.880201    1.203390
F       2.020006   -0.205914    1.290960
H       0.520516    1.763242   -0.669613
H      -0.996256   -0.338994    0.032099
H       0.806709   -1.501426   -1.386039
