21

C      -0.124464    1.565842    0.091557
C       0.007304    0.058460    0.062751
C       1.273511   -0.610369   -0.401932
C       0.857673   -0.719088    1.051295
C       1.663267   -0.030618    2.099242
O       1.114167    0.051041    3.424745
C       2.328705   -0.696136    3.233584
C       2.236742   -2.165176    3.562116
O       2.125016   -2.358519    4.963118
H       0.827879    2.059779    0.304294
H      -0.472453    1.938108   -0.878065
H      -0.842907    1.888763    0.852481
H      -0.912521   -0.451568   -0.211994
H       1.216711   -1.497705   -1.022360
H       2.119570    0.032605   -0.627296
H       0.442411   -1.671841    1.359923
H       2.124251    0.902747    1.771577
H       3.208775   -0.208368    3.658214
H       1.397621   -2.630806    3.028045
H       3.155878   -2.674924    3.253017
H       1.358649   -1.848356    5.249470
