19

C       0.022868    1.531073   -0.048634
C       0.008578    0.003283    0.011913
O       0.588188   -0.466384   -1.192820
C       0.921164   -1.847047   -1.164296
C       2.021448   -2.124174   -0.139683
C       1.652218   -1.479988    1.170887
C       2.308725   -1.929635    2.410267
O       3.145675   -2.802352    2.462531
C       0.714349   -0.524698    1.229987
H       1.051811    1.900188   -0.069710
H      -0.486135    1.866266   -0.955591
H      -0.488674    1.957266    0.819228
H      -1.046285   -0.331988    0.067462
H       0.028559   -2.449463   -0.928778
H       1.242044   -2.101822   -2.177548
H       2.165677   -3.200127    0.005251
H       2.981242   -1.730358   -0.495519
H       1.970877   -1.397004    3.328385
H       0.426198   -0.097317    2.189139
