18

C       0.066661    1.479303    0.030396
C       0.006513   -0.026906   -0.022449
C      -1.285236   -0.862258   -0.206107
N      -0.425174   -1.968108   -0.751844
C       0.569005   -2.227946    0.343617
C       1.759824   -1.643763   -0.445586
O       2.175875   -0.794324    0.633913
C       0.783430   -0.829200    1.046080
C       0.594794   -0.914461   -1.185966
H       1.106046    1.816752    0.092367
H      -0.385840    1.930981   -0.858673
H      -0.466181    1.864971    0.907603
H      -1.879220   -1.119391    0.678910
H      -1.945835   -0.482555   -0.991321
H       0.529514   -3.159960    0.903390
H       2.559322   -2.164303   -0.968050
H       0.630067   -0.613524    2.102723
H       0.596690   -0.573832   -2.220020
