20

O       0.814941   -0.439767   -0.940011
C       0.007017    0.111751    0.086641
C      -1.400763   -0.445110    0.038049
C      -2.524309    0.104273    0.953231
C      -3.418631    0.104648   -0.308419
C      -3.633053    1.479120   -0.987936
O      -3.705522    2.634205   -0.185891
C      -2.251343    1.274494   -1.638610
N      -2.216484   -0.170400   -1.208885
H       0.283373   -0.449749   -1.743981
H       0.471591   -0.163599    1.040861
H       0.000897    1.212472    0.044004
H      -1.327113   -1.535921    0.117815
H      -2.834328   -0.536273    1.781007
H      -2.346788    1.115505    1.329831
H      -4.237616   -0.619885   -0.332526
H      -4.452802    1.448209   -1.717180
H      -4.602310    2.716749    0.154256
H      -2.200300    1.387892   -2.724512
H      -1.495295    1.919453   -1.181232
