19

O      -0.102025    1.427775   -0.069283
C       0.013923    0.034858    0.070091
C       0.118297   -0.595723    1.492199
C      -0.736037   -1.761798    0.915821
C      -1.311261   -0.738689   -0.106006
C       0.161734   -2.774495    0.203112
C       1.173897   -2.098413   -0.730574
O       1.994314   -2.729348   -1.350585
C       1.089841   -0.567720   -0.837342
H       0.777518    1.817078   -0.010282
H       1.111051   -0.826018    1.893430
H      -0.443765    0.001019    2.213996
H      -1.440813   -2.251191    1.589199
H      -2.141083   -0.167120    0.315439
H      -1.576772   -1.089309   -1.108303
H       0.730374   -3.385261    0.914736
H      -0.424554   -3.477036   -0.402156
H       0.896211   -0.308302   -1.885232
H       2.083567   -0.167920   -0.592605
