18

C      -0.225941    1.507422   -0.106451
C       0.001483    0.021725    0.006437
N       1.381662   -0.469782   -0.114033
C       0.681771   -0.628450    1.175115
C       1.262737    0.121648    2.306874
C       0.910567    0.238608    3.639899
C       1.883375    1.099356    4.190681
N       2.775699    1.490491    3.283375
N       2.372392    0.885655    2.151189
H       0.548502    2.067586    0.421803
H      -0.217730    1.818595   -1.156253
H      -1.196856    1.779469    0.320486
H      -0.769132   -0.591190   -0.460395
H       1.422271   -1.351717   -0.615471
H       0.315878   -1.618964    1.436879
H       0.074764   -0.228947    4.134996
H       1.970073    1.447390    5.209756
H       2.894932    0.976701    1.294738
