16

N       0.003279    1.268530   -0.119131
C      -0.056305    0.016774   -0.250176
O      -1.233273   -0.621082   -0.065670
C      -1.201318   -2.044293   -0.168026
C      -2.631963   -2.527235    0.002181
C      -2.769504   -4.027069   -0.241387
O      -1.864265   -4.721906   -0.621744
C      -3.233511   -2.186773    1.368419
O      -4.362672   -2.470029    1.668711
H       0.950116    1.595061   -0.300166
H       0.769940   -0.657264   -0.514936
H      -0.804628   -2.363826   -1.137234
H      -0.558099   -2.470695    0.613474
H      -3.283431   -2.034259   -0.734312
H      -3.780970   -4.426352   -0.029741
H      -2.545195   -1.676896    2.074124
