18

O       0.037923    1.444146    0.028670
C       0.093503    0.038698    0.196045
C      -1.271021   -0.577615    0.042516
C      -2.403973   -0.345079    1.065883
C      -2.779669   -1.857723    0.976040
C      -1.628891   -2.089682   -0.055597
C      -2.030025   -1.744740   -1.467817
N      -2.458960   -2.393909   -2.450349
O      -1.767276   -0.388032   -1.335132
H      -0.326618    1.604515   -0.849534
H       0.789245   -0.431557   -0.516360
H       0.473416   -0.142908    1.206821
H      -2.038917   -0.040848    2.049426
H      -3.160451    0.367635    0.734722
H      -2.611773   -2.396916    1.909788
H      -3.779580   -2.096577    0.610727
H      -0.941047   -2.919517    0.093384
H      -2.630108   -1.786286   -3.253587
