15

C      -0.019947    1.495766    0.005302
C      -0.020034   -0.027326    0.027188
O      -0.036194   -0.638879    1.079225
C      -0.001071   -0.728152   -1.264877
C       0.017387   -0.174797   -2.535610
N       0.031071   -1.196962   -3.435034
C       0.021198   -2.408258   -2.773169
C       0.001048   -2.149496   -1.430309
H       0.870419    1.876026   -0.507319
H      -0.894721    1.875784   -0.533679
H      -0.035332    1.867172    1.030338
H       0.022069    0.853058   -2.860765
H       0.045940   -1.085329   -4.434161
H       0.029489   -3.336036   -3.322002
H      -0.010956   -2.866988   -0.626153
