18

C       0.242698    1.268717    1.004697
C      -0.147484    0.303818   -0.113464
O       0.745945   -0.819130   -0.185228
C      -1.566341   -0.163937   -0.009179
C      -2.654145    0.255002    0.717807
C      -3.772405   -0.565749    0.368290
C      -3.312254   -1.465216   -0.564658
O      -3.893787   -2.491000   -1.237146
N      -1.994280   -1.219859   -0.802524
H       1.294069    1.546604    0.898499
H      -0.364546    2.178189    0.968834
H       0.099199    0.804073    1.986281
H       0.014026    0.805292   -1.078110
H       0.623731   -1.324345    0.627638
H      -2.666010    1.075068    1.419013
H      -4.778027   -0.501742    0.754288
H      -4.810367   -2.555038   -0.953045
H      -1.387684   -1.782903   -1.374594
