17

O      -0.167295   -0.050068    0.359830
C      -0.044418    1.096715   -0.010067
C       1.224253    1.831203    0.002658
C       1.357121    3.112702   -0.362910
C       2.782876    3.604830   -0.189761
C       3.576612    2.268740   -0.021834
C       2.533888    1.238050    0.471895
C       3.261863    4.460950   -1.268191
C       3.656598    5.156625   -2.165320
H      -0.913368    1.675513   -0.395039
H       0.557950    3.757724   -0.711207
H       2.829251    4.181615    0.748119
H       3.959198    1.971241   -1.001719
H       4.431076    2.381493    0.648135
H       2.534014    1.142411    1.565236
H       2.701019    0.233064    0.075592
H       4.007082    5.773713   -2.955303
