21

C       1.828448   -1.081852    0.961394
C       0.590791   -0.487411    0.274742
C       0.736010   -0.351570   -1.234377
C       1.859663    0.577448   -1.709857
C       1.733052    1.931237   -1.168984
N       1.620692    2.990736   -0.721083
C       0.396065   -1.511058   -2.114979
N      -0.424293   -0.306081   -2.123675
C      -1.782269   -0.379962   -1.605502
H       2.082614   -2.061134    0.542286
H       2.703920   -0.433391    0.858804
H       1.645944   -1.211066    2.032073
H      -0.273484   -1.118942    0.496571
H       0.375204    0.499303    0.702889
H       2.840046    0.179648   -1.425238
H       1.829087    0.633736   -2.801387
H       0.960584   -1.718794   -3.021678
H      -0.003441   -2.397022   -1.620991
H      -1.937591   -1.140373   -0.825604
H      -2.070343    0.595542   -1.202429
H      -2.453996   -0.614426   -2.437112
