18

C       0.017471    1.454825   -0.111288
C      -0.111665   -0.052451    0.030065
C      -0.807820   -0.571933    1.276683
C       0.700682   -0.709191    1.136741
N       1.306691   -1.992034    1.163177
C       1.416784   -2.752504    0.158032
N       0.973358   -2.599391   -1.153626
C       0.039686   -1.712466   -1.684496
N      -0.463194   -0.650020   -1.216206
H       0.851539    1.712950   -0.772207
H      -0.897836    1.868144   -0.545854
H       0.188407    1.931631    0.857927
H      -1.221892    0.131289    1.993256
H      -1.373942   -1.489391    1.158068
H       1.267483   -0.008086    1.745286
H       1.931573   -3.705847    0.289493
H       1.184197   -3.382934   -1.754354
H      -0.290897   -2.040771   -2.671849
