13

O      -0.199243    0.180908    0.400768
C      -0.028985    1.298391    0.034928
O      -0.978292    2.176399   -0.448279
C       0.023137    3.219997   -0.673487
C       0.143292    4.174831    0.531023
C       1.224206    3.236510    1.154570
C       1.119240    2.293720   -0.089706
H      -0.025292    3.595540   -1.694031
H       0.532383    5.159206    0.261052
H      -0.784569    4.301146    1.091408
H       2.205319    3.706730    1.234864
H       0.983446    2.771979    2.112262
H       2.026685    1.966366   -0.591960
