14

O       0.110960    1.417285   -0.074075
C      -0.076062    0.047497    0.010360
C      -0.436166   -0.784899    1.231842
C      -1.607214   -0.189018    2.055461
O      -2.018610    1.085017    1.493028
C      -2.480861   -0.142172    0.892137
C      -1.353895   -0.743270   -0.015324
O      -1.628271   -1.778793   -0.886291
H      -0.589069    1.808761    0.466188
H       0.687072   -0.464613   -0.574346
H       0.189694   -1.589549    1.596139
H      -1.816887   -0.346957    3.105608
H      -3.548608   -0.285211    0.775238
H      -1.712687   -1.413260   -1.774582
