23

C       0.129496    1.715057    0.142952
C      -0.066356    0.210865    0.111466
C      -1.500619   -0.269637    0.304084
C      -2.472512    0.181053   -0.770027
C      -2.649543   -0.612789   -2.040620
C      -3.749485   -0.584386   -1.007272
C       0.841054   -0.599391   -0.801928
C       1.019804   -0.653419    0.696620
O       2.115802   -0.018636    1.292005
H       1.190705    1.968966    0.161825
H      -0.325486    2.193394   -0.730647
H      -0.329569    2.148120    1.039699
H      -1.513358   -1.366538    0.351051
H      -1.858205    0.081486    1.283004
H      -2.554228    1.258968   -0.879372
H      -2.800639   -0.077756   -2.971769
H      -2.084395   -1.532611   -2.148743
H      -3.916429   -1.483352   -0.422047
H      -4.653824   -0.028556   -1.229433
H       0.440813   -1.468290   -1.313399
H       1.592956   -0.052240   -1.361962
H       0.699969   -1.563472    1.206553
H       2.908883   -0.503724    1.042280
