22

C      -0.440951    0.889056   -1.834135
C      -0.158076   -0.228868   -0.851889
C       1.237190   -0.497392   -0.332323
C       2.412388    0.366852   -0.740200
C       0.154102   -0.016976    0.619672
N       0.214890    1.290474    1.208038
C       1.233992    1.530490    2.223320
C      -0.869841    2.127728    1.158883
O      -0.985752    3.165589    1.776124
H       0.092844    1.809531   -1.590826
H      -0.140833    0.587227   -2.843697
H      -1.509628    1.124953   -1.867163
H      -0.757242   -1.116776   -1.037364
H       1.493540   -1.546914   -0.213371
H       2.180068    1.432948   -0.689398
H       3.275557    0.183208   -0.092089
H       2.720156    0.141954   -1.767166
H      -0.234506   -0.779846    1.295817
H       2.235203    1.469947    1.790746
H       1.067811    2.526087    2.634212
H       1.159805    0.791670    3.031970
H      -1.644133    1.751426    0.467231
