20

C      -0.015890    1.516368   -0.090669
C      -0.017500    0.020657   -0.061663
C       0.003830   -0.825954   -1.094466
C      -0.022416   -2.262367   -0.629567
N      -0.011594   -2.204707    0.851520
C       1.198733   -1.607963    1.426801
C      -0.024172   -0.770011    1.218040
C      -0.881591   -0.342969    2.388519
O      -0.408142    0.851304    2.998296
H       0.879860    1.920914    0.395425
H      -0.051824    1.891249   -1.116924
H      -0.867475    1.927110    0.461609
H       0.051120   -0.540373   -2.139688
H      -0.929006   -2.788868   -0.957554
H       0.830602   -2.850833   -0.991720
H       1.451153   -1.984777    2.416434
H       2.049352   -1.418141    0.775358
H      -1.900606   -0.120557    2.054419
H      -0.942583   -1.175187    3.104341
H       0.497260    0.687561    3.283355
