17

O       0.519995    0.897908   -0.826530
C       0.085612   -0.245281   -0.148024
C       0.156522   -0.267660    1.377912
O       0.937457    0.234565    2.140454
C      -1.240890   -0.874855    1.516046
C      -2.267719    0.260474    1.824012
C      -2.358677    0.604825    0.307631
C      -1.434973   -0.599484   -0.024332
O      -1.922990   -1.610904   -0.848767
H       1.046305    1.414517   -0.203647
H       0.566472   -1.158486   -0.540026
H      -1.359840   -1.843894    1.998709
H      -3.202099   -0.138762    2.222000
H      -1.906757    1.043507    2.493957
H      -3.360189    0.490607   -0.110635
H      -1.951230    1.572977    0.007747
H      -2.025511   -1.254569   -1.738854
