19

C       0.041036    1.466320   -0.080454
C      -0.006907   -0.024562    0.015995
O       0.640737   -0.835184   -1.043313
C       0.097064   -1.831134   -0.108967
C       0.607314   -0.976610    1.086680
C      -0.134301   -1.084868    2.418051
C      -1.533945   -1.650261    2.159748
O      -2.122446   -1.094633    0.987748
C      -1.222734   -1.000224   -0.079348
H       1.072279    1.830180   -0.036488
H      -0.407898    1.803497   -1.019799
H      -0.520797    1.912245    0.746683
H       0.270189   -2.880921   -0.347015
H       1.695468   -0.911820    1.160540
H       0.398998   -1.741230    3.114571
H      -0.190676   -0.096208    2.890161
H      -1.465408   -2.743316    2.043490
H      -2.224065   -1.443540    2.981493
H      -1.776759   -0.957585   -1.018470
