18

C      -0.166282    1.354469   -0.031289
O      -0.075277   -0.053416   -0.069257
C       0.773321   -0.535504   -1.091839
C       0.649277   -2.057010   -1.049802
O      -0.698205   -2.448300   -1.177611
C       1.417179   -2.710051   -2.213636
O       2.777371   -2.319414   -2.249196
C       1.285230   -4.179036   -2.168073
N       1.247381   -5.332155   -2.111347
H       0.813696    1.815928    0.160064
H      -0.562548    1.759745   -0.974433
H      -0.846451    1.614496    0.782740
H       0.444269   -0.160806   -2.075681
H       1.813562   -0.219697   -0.933899
H       1.077775   -2.416125   -0.098247
H      -1.200985   -1.855642   -0.604477
H       0.973064   -2.358054   -3.151045
H       3.238744   -2.756047   -1.523650
