16

N       0.655294   -0.977001    0.251651
C       0.305041    0.116422    0.118649
C      -0.046858    1.558081   -0.003761
C      -0.764671    2.046790    1.289327
C       0.402612    2.395069    2.242005
C       1.660062    2.477269    1.339371
N       1.125531    2.426903   -0.031537
C      -0.871586    1.748521   -1.208977
N      -1.527199    1.907089   -2.145691
H      -1.341979    2.934283    1.025208
H      -1.447507    1.292661    1.681280
H       0.207966    3.339174    2.753495
H       0.530239    1.627689    3.007623
H       2.219993    3.406450    1.472119
H       2.337538    1.639889    1.556454
H       1.808963    2.135712   -0.721700
