21

C      -0.359041    1.621757    0.056740
C      -0.025783    0.130639   -0.026581
O       0.565191   -0.165716   -1.305377
C       1.945996   -0.351733   -1.384728
C       2.927596    0.797243   -1.289616
C       2.807342   -0.205763   -0.163808
O       2.159034    0.208339    1.003398
C       0.860720   -0.381163    1.116331
C       0.333525   -0.064813    2.506728
H       0.539155    2.219562    0.232720
H      -0.813877    1.940473   -0.884224
H      -1.068825    1.821642    0.865062
H      -0.960441   -0.444526   -0.014622
H       2.179440   -1.147478   -2.086131
H       3.811386    0.767213   -1.917931
H       2.531494    1.786894   -1.096081
H       3.618911   -0.910354    0.013433
H       0.955151   -1.472438    1.001140
H       0.312968    1.013917    2.680197
H      -0.678446   -0.460302    2.637210
H       0.982675   -0.517404    3.260708
