17

C       0.136288    1.329508    0.992903
C      -0.161259    0.476985   -0.235956
O       0.858294   -0.519090   -0.456061
C      -1.511555   -0.179086   -0.181695
C      -1.936915   -1.278229   -0.912031
N      -1.298651   -2.022458   -1.889149
N      -3.218412   -1.451155   -0.516417
N      -3.584515   -0.519330    0.413942
N      -2.548862    0.236543    0.600478
H       1.124084    1.787210    0.896703
H      -0.618233    2.110886    1.108465
H       0.112243    0.718618    1.902182
H      -0.088186    1.107278   -1.131723
H       0.910877   -1.044929    0.351194
H      -0.296303   -1.874859   -1.834446
H      -1.526515   -3.008032   -1.892625
H      -3.892032   -2.133219   -0.824744
