23

C      -0.844727    1.047551   -0.112827
C       0.028626   -0.204369   -0.143375
C       1.109325   -0.205091   -1.265305
O       1.632371    1.083763   -1.603540
C       2.176356   -1.106150   -0.692182
C       2.017504   -1.278306    0.619292
C       0.788831   -0.581192    1.175885
C       1.217972    0.639256    2.017966
C      -0.046687   -1.525933    2.057253
H      -0.247738    1.955123   -0.000588
H      -1.405157    1.145274   -1.048150
H      -1.570718    1.005756    0.706114
H      -0.617251   -1.063290   -0.366691
H       0.687859   -0.574361   -2.206504
H       2.265270    1.325533   -0.919104
H       2.999527   -1.483316   -1.289185
H       2.690216   -1.837004    1.264478
H       1.777251    1.367443    1.422873
H       0.349539    1.150691    2.445683
H       1.861477    0.327311    2.847919
H       0.505096   -1.818594    2.957884
H      -0.973567   -1.040181    2.382340
H      -0.314851   -2.438688    1.515747
