23

C      -0.138564    0.069971    1.064105
C       1.225528   -0.167143    0.412776
C       1.926981    1.169120    0.106369
O       2.018993   -0.905764    1.335630
C       1.075386   -0.946253   -0.900407
O       2.158150   -1.836578   -1.211647
C       0.823126   -2.391070   -1.064619
C       0.613064   -3.342722    0.093783
C       0.230383   -2.862129   -2.377866
H      -0.799281    0.629195    0.394124
H      -0.618755   -0.878818    1.315713
H      -0.016494    0.647743    1.984978
H       2.113136    1.706677    1.039829
H       2.889038    0.990999   -0.385150
H       1.320591    1.803706   -0.548758
H       2.682335   -1.361132    0.797436
H       0.777616   -0.310043   -1.737540
H       1.023187   -2.948992    1.022033
H      -0.457880   -3.527641    0.232505
H       1.084227   -4.306612   -0.130106
H       0.632321   -3.845391   -2.645577
H      -0.857939   -2.956398   -2.299189
H       0.463833   -2.165752   -3.186840
