21

C      -0.834825    1.136895   -0.020233
C       0.013677   -0.131759   -0.090186
C       1.013420   -0.195122   -1.238563
C       2.314420    0.557794   -1.083710
C       2.257986   -0.916443   -0.761718
C       2.051045   -1.301912    0.693907
C       0.878882   -0.428431    1.144975
C       0.969121    0.451413    2.320290
O       0.217995   -0.767015    2.360965
H      -0.209717    2.034707    0.021676
H      -1.477193    1.219982   -0.902565
H      -1.483550    1.123571    0.861810
H      -0.665366   -0.990958   -0.194771
H       0.628371   -0.350443   -2.240488
H       2.828714    0.847433   -1.993471
H       2.423237    1.270302   -0.271609
H       2.785285   -1.606934   -1.409923
H       1.757408   -2.356528    0.766599
H       2.937245   -1.164882    1.322104
H       1.883812    0.454808    2.913030
H       0.379090    1.363589    2.379377
