19

O      -0.370421    1.657841    0.280906
C      -0.142748    0.301178    0.105636
C      -0.351173   -0.741904    1.181475
C      -0.926876   -0.403047    2.549936
C      -2.338297    0.140403    2.566171
O      -2.590635    1.372183    1.856238
C      -3.189384    0.151879    1.369118
C      -2.715291   -0.378835    0.034478
C      -1.236797   -0.729923   -0.064157
H      -1.157490    1.772953    0.842068
H       0.734601    0.162691   -0.519599
H       0.400112   -1.525453    1.226295
H      -0.937388   -1.313513    3.162420
H      -0.274826    0.307830    3.075759
H      -2.824441    0.117704    3.541144
H      -4.270113    0.137190    1.507793
H      -3.305469   -1.281454   -0.168391
H      -2.991233    0.344612   -0.744942
H      -1.039475   -1.506038   -0.798390
