16

O       0.162079    1.420340   -0.187905
C       0.044992    0.006795   -0.048237
C       0.654052   -0.544694    1.245644
C      -0.223538   -1.289897    1.941146
C      -1.497625   -1.322323    1.224259
C      -2.779919   -1.809722    1.267004
N      -3.418693   -1.331121    0.138889
C      -2.561624   -0.553769   -0.616160
C      -1.361885   -0.537289    0.039748
H      -0.337532    1.811843    0.537564
H       0.581963   -0.394880   -0.917506
H       1.676701   -0.325709    1.526239
H      -0.025252   -1.786346    2.883539
H      -3.298511   -2.444481    1.967235
H      -4.379340   -1.512827   -0.093350
H      -2.897569   -0.095072   -1.532424
