12

O       0.064227    1.406173    0.272196
C      -0.025589    0.030872    0.111209
C      -0.465753   -0.810981    1.276998
O      -1.163103   -0.123519    2.300235
C      -2.269637    0.385462    1.707480
N      -2.501073    0.105653    0.486675
C      -1.369735   -0.674669    0.043376
H      -0.560592    1.821099   -0.333337
H       0.754145   -0.420272   -0.501688
H       0.071324   -1.679725    1.633794
H      -2.890761    0.994504    2.351999
H      -1.557044   -1.438574   -0.701603
