14

O      -0.158764    0.029450   -0.243669
C      -0.116226    1.195131    0.087752
C       1.110352    1.967773    0.074163
C       2.159997    2.571481    0.023819
C       3.332578    3.254331   -0.030986
C       4.374562    3.862737   -0.079935
N      -1.209113    1.898105    0.582223
C      -1.787568    3.077052   -0.038457
C      -2.532882    1.774572    0.017917
H       5.291949    4.396547   -0.121663
H      -2.050729    3.885867    0.636686
H      -1.385533    3.388261   -0.999075
H      -2.624278    1.194629   -0.896241
H      -3.340901    1.647783    0.732175
