15

C      -0.030398    1.510741   -0.023905
C      -0.052422    0.011929    0.006205
C      -1.175265   -0.736397   -0.118414
C      -1.119574   -2.166255   -0.080179
O      -2.305400   -2.828497   -0.214613
C       0.084331   -2.753433    0.083830
O       1.224007   -2.033286    0.211214
C       1.243824   -0.644534    0.183313
O       2.306172   -0.088351    0.304539
H       0.613742    1.870322   -0.833184
H      -1.034548    1.919089   -0.159051
H       0.395601    1.908424    0.903193
H      -2.147765   -0.271621   -0.250660
H      -2.152502   -3.778667   -0.174663
H       0.262468   -3.821347    0.129532
