19

C       0.089879    1.072889    0.639574
O      -0.159373    0.164574   -0.419711
C      -1.370046   -0.485426   -0.304495
C      -1.521521   -1.784636   -0.992435
O      -0.442466   -2.263196   -1.705236
C      -0.463158   -3.670681   -1.872028
C      -1.482343   -1.768672    0.556323
C      -0.281422   -2.276708    1.251190
O      -0.315455   -2.840352    2.322410
H       1.044126    1.556705    0.423038
H      -0.696648    1.838741    0.704064
H       0.155730    0.555827    1.606921
H      -2.242395    0.170098   -0.267542
H      -2.497227   -2.015363   -1.424678
H       0.404542   -3.929439   -2.481696
H      -0.397827   -4.192011   -0.906942
H      -1.377300   -3.999674   -2.387218
H      -2.413886   -1.940179    1.085244
H       0.675398   -2.106135    0.719014
