18

C      -0.069151    1.471933    0.026601
O       1.263786    1.894573   -0.291314
C       2.100120    0.768417   -0.590323
C       1.242147   -0.415328   -0.278454
C       0.020630   -0.019623    0.078025
C      -0.921828   -1.166502    0.344687
C      -0.039464   -2.377412    0.006389
N       0.395021   -2.434362   -1.404497
C       1.326138   -1.895485   -0.369581
H      -0.371265    1.929638    0.980822
H      -0.775008    1.828506   -0.742021
H       2.411943    0.796221   -1.647286
H       3.013133    0.830598    0.020473
H      -1.265553   -1.196577    1.386898
H      -1.815789   -1.135048   -0.289467
H      -0.186755   -3.310940    0.539000
H       0.662797   -3.395033   -1.614924
H       2.229844   -2.448594   -0.137242
