15

O      -0.093954   -0.038439    0.096897
C      -0.027404    1.166856    0.020196
C       1.239598    1.909596    0.024288
C       1.360090    3.235256   -0.086574
C       2.821306    3.633721   -0.078090
N       3.489778    2.396758    0.345382
C       2.590063    1.250648    0.124775
C       3.236588    4.120301   -1.414699
N       3.592697    4.478745   -2.454676
H      -0.939255    1.796774   -0.061146
H       0.559455    3.955050   -0.200371
H       3.018141    4.448495    0.633206
H       4.401765    2.280896   -0.075469
H       2.642266    0.545358    0.961559
H       2.803907    0.678745   -0.791640
