19

C       0.315432    1.371668   -0.202644
C       0.180078   -0.105552    0.121936
C       0.265825   -1.074980   -1.088338
C       1.437619   -2.036408   -0.741689
N       2.743513   -1.696999   -1.305085
C       1.526003   -1.852480    0.791059
O       1.270532   -0.477425    0.992409
C       0.553720   -2.703164    1.512811
N      -0.214808   -3.365436    2.066210
H       1.237336    1.564396   -0.760898
H      -0.532190    1.704583   -0.809313
H       0.336404    1.966315    0.714595
H      -0.759642   -0.277839    0.664341
H      -0.671934   -1.621802   -1.215699
H       0.472160   -0.545145   -2.022106
H       1.209621   -3.070105   -1.011595
H       2.703728   -1.741073   -2.318878
H       2.974316   -0.735588   -1.066983
H       2.530732   -2.072763    1.159120
