18

C      -0.100331    1.531292    0.001826
C      -0.009135    0.015544   -0.022009
C      -1.230490   -0.821517    0.416317
O      -0.412676   -1.631050    1.288364
C       0.711131   -0.732367    1.128214
C       1.960310   -1.370538    0.505467
O       2.061008   -0.822730   -0.805927
C       0.739931   -0.549277   -1.250427
H       0.887982    1.979011   -0.148447
H      -0.756971    1.900496   -0.794334
H      -0.495093    1.894931    0.955990
H      -1.980237   -0.251790    0.981531
H      -1.736264   -1.417913   -0.352510
H       0.908166   -0.172626    2.049723
H       2.887836   -1.133661    1.033903
H       1.827105   -2.462530    0.480232
H       0.254077   -1.468638   -1.615251
H       0.810738    0.159481   -2.080069
