20

C       0.060278    1.298768    0.401686
C       1.461709    1.533691   -0.191080
C       1.283308    0.137589   -0.827403
C       1.286224    0.010138   -2.361612
C       1.465185   -1.497975   -2.656986
C       2.251947   -2.005708   -1.460894
N       3.406853   -1.141514   -1.126966
C       2.144090   -1.017481   -0.360595
O      -0.051326    0.015848   -0.247577
H       0.014472    1.209152    1.494396
H      -0.722910    1.993182    0.074064
H       1.532490    2.353385   -0.908583
H       2.279238    1.616375    0.527138
H       0.368657    0.425908   -2.783619
H       2.135384    0.573331   -2.757200
H       0.495761   -2.007552   -2.687949
H       1.972057   -1.680349   -3.609507
H       2.322957   -3.070245   -1.262711
H       4.070811   -1.675815   -0.571861
H       2.116556   -1.302131    0.686130
