20

C      -0.146436    1.513253    0.002634
C      -0.012280   -0.012847    0.006139
C      -1.402591   -0.616833   -0.198251
C       1.186679   -0.599820   -0.839735
C       2.136533   -0.181445    0.311706
C       0.902898   -0.608288    1.171331
C       0.820609   -2.096894    0.800203
O       0.517099   -3.058465    1.460500
N       1.131742   -2.053011   -0.562999
H       0.790031    2.048522    0.163697
H      -0.557488    1.850354   -0.956071
H      -0.846431    1.831004    0.783047
H      -1.834577   -0.267688   -1.143166
H      -1.404612   -1.708299   -0.207911
H      -2.075994   -0.297070    0.604298
H       1.363186   -0.356195   -1.887297
H       3.046202   -0.774715    0.415553
H       2.365266    0.880240    0.361222
H       0.772989   -0.360440    2.222560
H       0.670894   -2.697252   -1.188747
