22

C      -0.082411    1.554547   -0.347536
C      -0.017966    0.066442   -0.074570
C       1.266460   -0.684823   -0.157292
N       0.593762   -0.512126    1.126956
C       1.222616    0.344843    2.104296
C       0.395702    0.754191    3.361379
C       0.510050   -0.721968    3.847837
C       1.924189   -0.343857    3.316569
C       1.761125    1.012327    4.060390
H       0.865578    2.059820   -0.150542
H      -0.335057    1.724512   -1.399562
H      -0.856937    2.035703    0.259908
H      -0.924170   -0.464489   -0.364969
H       1.306949   -1.699253   -0.546349
H       2.165995   -0.095443   -0.338624
H       1.810784    1.162854    1.661417
H      -0.488089    1.394287    3.383356
H       0.427807   -0.879442    4.926703
H      -0.039856   -1.467119    3.275602
H       2.812985   -0.976065    3.282490
H       2.355599    1.855806    3.695658
H       1.759672    0.965935    5.151712
