16

C      -0.136242    1.633386   -0.010406
C       0.019063    0.114411   -0.024360
C      -1.255273   -0.543619    0.218950
C      -2.304101   -1.080983    0.452884
N       0.673420   -0.515786   -1.260159
C       2.046431   -0.025083   -1.314063
C       1.747306   -1.150294   -0.382243
C       1.123343   -0.587684    0.857032
O       1.272151   -0.742019    2.030151
H       0.814436    2.152948   -0.145036
H      -0.824783    1.944276   -0.801204
H      -0.555369    1.940719    0.950910
H      -3.231713   -1.558309    0.652880
H       2.556877   -0.288396   -2.235424
H       2.307432    0.952256   -0.920589
H       2.123971   -2.155913   -0.526548
