18

C      -0.172075    1.302849    0.368820
C       1.244852    0.965029    0.025746
C       2.328966    0.716324    1.072925
C       1.874474    0.308344    2.450471
C       1.053994   -0.711358    2.740518
C       0.361370   -1.583173    1.798219
C       0.005499   -1.313863    0.529466
C       0.158248   -0.060820   -0.241202
H      -0.454848    1.304296    1.414637
H      -0.707886    2.016411   -0.247463
H       1.634717    1.442411   -0.871212
H       3.000800   -0.058891    0.673585
H       2.937121    1.624117    1.158377
H       2.294029    0.873932    3.278383
H       0.885304   -0.939396    3.791699
H       0.072406   -2.554592    2.193887
H      -0.509951   -2.105167   -0.010496
H      -0.118506   -0.166133   -1.285563
