16

N      -0.040239    1.444916    0.011021
C      -0.012125   -0.017163   -0.001981
C       0.577478   -0.566947    1.335280
N      -0.158267   -1.796796    1.530422
C      -1.349412   -1.876393    0.855911
O      -2.170822   -2.755966    0.952333
C      -1.433844   -0.623159   -0.024408
C       0.779351   -0.547668   -1.136435
N       1.411376   -0.902314   -2.037651
H       0.908082    1.813393    0.020045
H      -0.467051    1.787985   -0.845506
H       1.654598   -0.743367    1.269913
H       0.385731    0.175868    2.120475
H       0.066941   -2.468197    2.247211
H      -2.126889    0.086852    0.438181
H      -1.799506   -0.870892   -1.021015
