19

O       0.099991    1.430420    0.208770
C       0.027974    0.014312    0.198643
C      -1.342440   -0.500853   -0.260631
C      -1.415387   -2.006072   -0.287583
C      -0.595984   -2.823383   -1.294220
C      -1.403145   -4.094966   -1.456572
C      -2.529012   -4.073551   -0.738804
C      -2.610334   -2.806774    0.045956
O      -1.523583   -2.650540    0.992164
H      -0.507204    1.750090    0.883762
H       0.807820   -0.314226   -0.496847
H       0.267773   -0.412871    1.183652
H      -2.113490   -0.124362    0.422871
H      -1.559701   -0.095452   -1.255978
H      -0.483072   -2.287687   -2.246075
H       0.415207   -3.024555   -0.920726
H      -1.062411   -4.922545   -2.068570
H      -3.272074   -4.859339   -0.687923
H      -3.555467   -2.372959    0.360302
