20

C      -0.494803    0.663698    0.100181
O       0.760642    0.105689   -0.274172
C       0.698411   -0.936218   -1.127371
N       1.766439   -1.511165   -1.476993
C       1.739584   -2.630760   -2.410032
C       2.344481   -3.843037   -1.679531
O       1.540688   -4.245149   -0.568231
C       0.397985   -2.987983   -3.076057
O      -0.615378   -3.387975   -2.168650
H      -1.064000    0.996438   -0.775904
H      -1.098285   -0.052314    0.670730
H      -0.271798    1.525729    0.729872
H      -0.312780   -1.211331   -1.444713
H       2.437052   -2.383231   -3.224714
H       2.390399   -4.707308   -2.348901
H       3.362344   -3.600446   -1.350460
H       1.550873   -3.504015    0.050435
H       0.011320   -2.118959   -3.622604
H       0.593196   -3.773306   -3.825723
H      -0.180867   -3.943963   -1.504015
