19

C       0.018946    1.524415   -0.110444
C      -0.016780    0.015341   -0.012726
O       0.311724   -0.512834   -1.275346
C      -0.165600   -1.830741   -1.504013
C       0.079882   -2.733582   -0.295276
C      -0.236931   -1.934263    0.963852
C       0.608979   -0.666883    1.250384
O      -0.508135   -0.129352    2.052123
C      -1.148041   -0.673768    0.843208
H       0.999108    1.847371   -0.474445
H      -0.731339    1.872526   -0.826807
H      -0.172485    1.973151    0.864045
H      -1.246739   -1.795076   -1.713962
H       0.337739   -2.190518   -2.405236
H      -0.552880   -3.625039   -0.366889
H       1.120767   -3.077653   -0.263318
H      -0.434766   -2.527138    1.858697
H       1.616133   -0.586534    1.663047
H      -2.234660   -0.594379    0.779196
