17

C      -0.012259    1.490687    0.096514
C      -0.026949    0.000570    0.009553
C      -0.075479   -0.755389   -1.091752
C      -0.071748   -2.205286   -0.720387
C      -0.012142   -2.186619    0.810386
O       0.009780   -3.125852    1.554508
N       0.012643   -0.810423    1.181865
C       0.066796   -0.301620    2.477631
N       0.101841   -1.024536    3.520102
H       0.893796    1.865709    0.586673
H      -0.048387    1.908643   -0.911456
H      -0.871541    1.879209    0.655536
H      -0.111849   -0.369660   -2.099722
H      -0.967079   -2.752401   -1.038444
H       0.788315   -2.765073   -1.106515
H       0.074999    0.792260    2.476711
H       0.138351   -0.424975    4.343360
