17

C      -0.076442    1.539223   -0.004853
C       0.022790    0.014614   -0.018444
C       0.738301   -0.505809   -1.264611
O       0.935338   -1.901188   -1.177608
C       1.840797   -2.235039   -0.143145
C       1.580117   -1.547446    1.197346
O       2.117543   -1.933412    2.217938
N       0.755672   -0.461962    1.151895
H       0.918005    1.995504   -0.034470
H      -0.651266    1.894371   -0.865632
H      -0.584946    1.889225    0.899534
H      -0.992636   -0.409860   -0.016312
H       0.127378   -0.323921   -2.152723
H       1.700723    0.019643   -1.389057
H       1.776309   -3.313365    0.015134
H       2.878511   -1.999597   -0.432832
H       0.558181   -0.045677    2.051884
