15

O       0.142567    1.308680    0.135756
C       0.107264   -0.053775    0.085434
C       0.779588   -0.994641    1.087297
C       0.097760   -1.950789    0.074380
C       0.078573   -3.381797    0.048145
N       0.051051   -4.538263    0.009060
C      -1.141584   -0.991056   -0.120201
N      -1.030168   -0.883917   -1.605572
C       0.387105   -0.992721   -1.147631
H      -0.362213    1.645528   -0.616187
H       1.871866   -1.004574    1.095768
H       0.374890   -1.002938    2.101887
H      -2.085193   -1.019627    0.424601
H      -1.339375   -1.744160   -2.064242
H       1.247896   -1.023264   -1.815561
