20

C      -0.033191    1.577700   -0.064223
C       1.469166    1.972124   -0.076844
C       2.190599    0.605480    0.017176
C       2.468041    0.161686    1.461832
C       1.165030    0.147144    2.284199
C       0.010224   -0.483608    1.482377
C       0.011271    0.033308    0.035394
O       1.261336   -0.310600   -0.571865
H      -0.585204    2.030395    0.763946
H      -0.524289    1.882148   -0.991343
H       1.732767    2.474598   -1.010363
H       1.740569    2.641091    0.744337
H       3.104415    0.567704   -0.581929
H       2.898824   -0.845587    1.422432
H       3.213974    0.815936    1.928559
H       1.313385   -0.387880    3.227971
H       0.897553    1.174699    2.559679
H       0.129209   -1.572743    1.445591
H      -0.953482   -0.278213    1.963392
H      -0.775390   -0.450908   -0.549510
