21

C       0.013890    1.592596    0.004698
C      -0.130914    0.069902   -0.067030
C       0.658127   -0.542691   -1.216987
O       2.070556   -0.205158   -1.120841
C       2.782668   -1.450032   -1.155985
C       2.505183   -2.178961    0.163947
O       1.119057   -2.564460    0.027959
C       0.706287   -2.082094   -1.260050
C       1.952876   -2.301418   -2.128951
H       1.063574    1.871398    0.128249
H      -0.353798    2.071756   -0.909794
H      -0.552652    2.001806    0.846552
H       0.194238   -0.393011    0.869550
H      -1.186712   -0.201366   -0.201107
H       0.275304   -0.149615   -2.172274
H       3.830270   -1.257060   -1.385232
H       3.126612   -3.072910    0.306088
H       2.627901   -1.510168    1.022130
H      -0.223856   -2.576503   -1.539104
H       1.891171   -1.862905   -3.126309
H       2.253474   -3.349366   -2.182758
