23

C      -0.130143    1.522862   -0.076220
C      -0.005259    0.011392    0.037719
O       0.651161   -0.525139   -1.127479
C       1.515276   -1.604749   -0.727711
C       1.025698   -1.986603    0.675240
C       0.783435   -0.571794    1.227642
C       2.149717    0.101452    1.482871
C       3.047177    0.159207    0.224636
C       2.967312   -1.108763   -0.648918
H       0.841346    2.021796   -0.086396
H      -0.653851    1.783801   -1.000447
H      -0.711773    1.915329    0.764750
H      -1.026001   -0.405397    0.078201
H       1.409880   -2.409488   -1.462210
H       0.095876   -2.562388    0.628481
H       1.761783   -2.561503    1.243148
H       0.180768   -0.563923    2.140941
H       2.013177    1.114310    1.878656
H       2.653752   -0.467935    2.274300
H       2.739946    1.006490   -0.394232
H       4.084166    0.354690    0.517984
H       3.588520   -1.915704   -0.239565
H       3.349704   -0.890485   -1.651686
