21

C       0.038861    1.414874   -0.524226
C       0.035158    0.117506    0.296340
C      -1.334434   -0.506404    0.378014
O      -1.862435   -1.045334   -0.869003
C      -1.676521   -1.943104    0.235914
C      -0.711997   -3.077780    0.021919
C      -2.971084   -2.189252    1.017429
C      -3.327559   -0.819964    1.552959
C      -2.419194    0.098513    1.220940
H       1.047027    1.835031   -0.586005
H      -0.316894    1.221904   -1.540189
H      -0.612037    2.175012   -0.079742
H       0.733496   -0.596204   -0.151641
H       0.392163    0.315226    1.315133
H       0.177144   -2.744511   -0.517443
H      -0.402448   -3.513574    0.977764
H      -1.183201   -3.870616   -0.570173
H      -3.754484   -2.596978    0.366483
H      -2.818278   -2.917543    1.824911
H      -4.237789   -0.632872    2.111609
H      -2.448540    1.148233    1.487355
