22

C      -0.013381    1.454641   -0.094386
C       1.287909    0.726610   -0.023955
C       2.167569    0.861026    1.223378
C       1.782671   -0.128774    2.336892
C       0.277740   -0.166516    2.518707
C      -0.307894   -0.585341    3.839058
C      -0.384886    0.861245    3.409268
C      -0.417984   -0.637099    1.249414
N       0.008256    0.000885    0.001489
H      -0.290036    2.033364    0.784711
H      -0.383105    1.854270   -1.036010
H       1.833312    0.578152   -0.953726
H       3.214384    0.710547    0.941814
H       2.097133    1.883058    1.612989
H       2.131940   -1.136659    2.073160
H       2.284219    0.145427    3.271474
H      -1.224053   -1.168015    3.832169
H       0.375080   -0.844018    4.641947
H       0.245142    1.580053    3.923761
H      -1.354484    1.252218    3.117940
H      -0.221138   -1.711905    1.130708
H      -1.504971   -0.521069    1.334320
