18

C      -0.193524    1.537233    0.030923
C      -0.027391    0.051874   -0.024438
C      -0.115640   -0.726097   -1.107059
C       0.103758   -2.175017   -0.792636
O       1.297496   -2.707454   -1.453725
C       2.213224   -2.830415   -0.468091
N       1.901539   -2.588619    0.737254
C       0.479919   -2.193480    0.721824
C       0.252464   -0.749891    1.228699
H       0.710832    2.014741    0.428052
H      -0.401360    1.960999   -0.954868
H      -1.012815    1.817081    0.705078
H      -0.317595   -0.377181   -2.113610
H      -0.720645   -2.829356   -1.087859
H       3.193179   -3.152007   -0.805330
H      -0.091916   -2.918438    1.307906
H       1.130272   -0.382959    1.771845
H      -0.594136   -0.692447    1.925640
