17

C      -0.043662    1.522186   -0.034923
C       0.012368    0.016388    0.024246
C      -1.254324   -0.770562   -0.287935
O      -1.167907   -2.014641    0.429844
C      -0.211322   -1.945975    1.424429
O      -0.156552   -2.757470    2.299122
C       0.671740   -0.778097    1.156434
C       1.261973   -0.754110   -0.252978
O       1.336042   -1.861849   -1.089275
H       0.922881    1.961922    0.227760
H      -0.298442    1.865054   -1.044174
H      -0.793519    1.921994    0.656832
H      -2.149757   -0.234318    0.046146
H      -1.359215   -1.003080   -1.352571
H       1.212293   -0.347813    1.988926
H       2.174604   -0.173616   -0.341603
H       0.589557   -2.449193   -0.917583
