18

C       0.045442    1.578843    0.150366
C      -0.021252    0.048403   -0.019040
C      -1.408778   -0.504126   -0.081608
C      -2.249487   -0.732607   -1.155901
N      -1.979306   -0.453954   -2.514645
C      -3.486621   -1.223385   -0.645430
C      -3.372533   -1.278119    0.724816
N      -2.123990   -0.835425    1.058507
H       1.082807    1.928811    0.187141
H      -0.459039    2.081183   -0.680120
H      -0.451092    1.891337    1.074657
H       0.516728   -0.233393   -0.933837
H       0.531512   -0.431447    0.800489
H      -0.985001   -0.421430   -2.707063
H      -2.394863   -1.145909   -3.127001
H      -4.356298   -1.495383   -1.224553
H      -4.072539   -1.600248    1.478722
H      -1.755150   -0.791698    1.991651
