20

C      -0.187778    1.431903   -0.273217
N       0.323383    0.106327    0.065555
C       0.733327   -0.726530   -0.961511
C       0.693925   -2.076043   -1.142137
C       1.393907   -2.335226   -2.378129
C       1.613460   -3.682691   -2.992677
C       1.790205   -1.126720   -2.857904
C       2.516994   -0.668019   -4.069025
O       1.388493   -0.128132   -1.985409
H       0.582319    1.989547   -0.809177
H      -1.092857    1.409384   -0.899594
H      -0.413790    1.966056    0.652666
H      -0.264423   -0.389264    0.720473
H       0.229662   -2.801436   -0.492234
H       0.662788   -4.191074   -3.193448
H       2.156607   -3.613330   -3.938973
H       2.189964   -4.336905   -2.327764
H       1.906383    0.007597   -4.681229
H       3.438611   -0.130092   -3.814220
H       2.790395   -1.524998   -4.688805
