15

O      -0.335474    1.007812   -0.859140
C      -0.100584   -0.247601   -0.467449
C       0.225770   -1.431454   -1.112870
O       0.459894   -1.728821   -2.455869
C       0.122464   -0.950924   -3.468244
N      -0.411785    0.202822   -3.377492
C       0.363044   -2.453612   -0.129592
C       0.116068   -1.879369    1.087185
N      -0.166935   -0.544779    0.865824
H      -0.437693    0.949549   -1.849512
H       0.376520   -1.451978   -4.404548
H      -0.579205    0.606006   -4.293762
H       0.617702   -3.482731   -0.325510
H       0.118067   -2.290453    2.082071
H      -0.400540    0.143434    1.559767
