16

O      -0.067494    1.422664    0.074017
C       0.013269    0.017124    0.013374
C      -1.420310   -0.507314    0.064596
N      -1.390002   -1.943445   -0.155898
C      -0.388527   -2.532494   -0.864196
N       0.635556   -1.976658   -1.399490
C       0.709591   -0.516355   -1.266524
C       0.154076    0.131885   -2.467961
N      -0.293371    0.626222   -3.411839
H       0.822038    1.789753    0.046717
H       0.573737   -0.394585    0.865960
H      -1.858879   -0.290007    1.042346
H      -2.013712    0.014824   -0.697287
H      -2.170803   -2.504173    0.138190
H      -0.487120   -3.614691   -0.953464
H       1.772304   -0.242843   -1.221483
