17

C       0.022898    1.483220   -0.010875
C       0.009344   -0.023317   -0.014395
C      -0.849155   -0.847490    0.908648
C       0.650049   -0.922756    1.058452
C       1.369311   -1.927012    0.150704
O       0.399771   -2.181806   -0.911569
C       0.516534   -0.770124   -1.260913
C       2.024794   -0.961599   -0.890660
O       3.099515   -0.655702   -1.289411
H       0.982683    1.875727   -0.366426
H      -0.763416    1.890543   -0.657033
H      -0.142649    1.874594    0.997329
H      -1.360237   -0.284999    1.682909
H      -1.392339   -1.704581    0.531340
H       1.155471   -0.529294    1.931663
H       1.840248   -2.819629    0.556797
H       0.145291   -0.515557   -2.251862
