16

C      -0.077633    1.494353    0.046370
C       0.012406    0.004529    0.006250
C      -0.091983   -0.815794   -1.037117
C       0.023301   -2.248709   -0.566385
O       0.368806   -2.165816    0.799592
C       0.239832   -0.820542    1.249181
C      -1.306190   -2.976308   -0.783461
O      -2.075313   -3.273488    0.088368
H       0.845996    1.936257    0.440039
H      -0.262009    1.914260   -0.945261
H      -0.887876    1.819231    0.710873
H      -0.270695   -0.538393   -2.067942
H       0.798414   -2.813792   -1.112610
H       1.155268   -0.531882    1.786357
H      -0.599449   -0.727493    1.956874
H      -1.517360   -3.196586   -1.858063
