17

C       0.138013    1.485879    0.093543
O       0.060815    0.070211    0.088771
C       0.506783   -0.541444   -1.033564
C       0.558008   -1.894557   -1.221001
C       0.148381   -3.062212   -0.382161
N      -1.024761   -3.809610   -0.857414
O       1.049921   -2.138935   -2.456189
N       1.330845   -0.946302   -3.101786
C       1.007904   -0.000033   -2.250702
H       1.173931    1.830982   -0.020524
H      -0.476190    1.923542   -0.704420
H      -0.245363    1.812596    1.061062
H       0.985166   -3.765790   -0.304188
H      -0.054793   -2.692314    0.627164
H      -1.816226   -3.176699   -0.938369
H      -0.844005   -4.148337   -1.798572
H       1.145166    1.032235   -2.536516
