19

C      -0.153743    1.454643   -0.682018
C      -0.111623    0.104544    0.037602
C      -1.473433   -0.598544    0.064303
O      -1.991142   -0.813066   -1.244408
C      -1.425025   -1.917450    0.865165
C      -2.799510   -2.568649    0.897527
O      -3.657220   -2.225758    1.681601
C      -3.037835   -3.614850   -0.082725
C      -3.213931   -4.498585   -0.881338
H       0.841711    1.905137   -0.733708
H      -0.534290    1.336908   -1.699805
H      -0.813031    2.156927   -0.160577
H       0.615216   -0.560540   -0.451761
H       0.239759    0.234426    1.068696
H      -2.210547    0.056793    0.543669
H      -1.393995   -1.411050   -1.708756
H      -0.686584   -2.594843    0.420516
H      -1.131833   -1.704657    1.897752
H      -3.393834   -5.276572   -1.583031
