19

C      -0.139347    1.548226    0.109101
C      -0.001364    0.018453   -0.001601
C      -1.368447   -0.650052   -0.117693
O       0.708390   -0.359883   -1.190807
C       2.071630   -0.014861   -1.252398
C       2.829665   -0.366362   -0.010380
C       2.200541   -0.637015    1.137615
C       0.737192   -0.493092    1.252285
O       0.148585   -0.691426    2.296605
H       0.831854    2.041743    0.214438
H      -0.633156    1.938317   -0.785573
H      -0.739025    1.803784    0.986451
H      -1.924468   -0.222299   -0.956184
H      -1.247775   -1.722169   -0.292695
H      -1.930724   -0.508142    0.806220
H       2.482763   -0.561690   -2.109511
H       2.217306    1.058774   -1.475629
H       3.915070   -0.383971   -0.079773
H       2.726324   -0.915159    2.045424
