20

C       0.117992    1.562727    0.335196
C      -0.014102    0.089368    0.004018
C       0.911935   -0.512270   -1.023364
C       1.078520   -0.854583    0.440105
C      -1.437840   -0.415068    0.069874
C      -2.405846   -0.054267   -1.085038
C      -2.587740   -1.577684   -1.213012
O      -1.567991   -1.827906   -0.221465
H       1.163134    1.882265    0.285430
H      -0.452025    2.185688   -0.364732
H      -0.248380    1.778504    1.346191
H       0.520257   -1.294008   -1.664221
H       1.644769    0.137456   -1.490111
H       1.924744   -0.439763    0.977853
H       0.787411   -1.853251    0.744388
H      -1.855219   -0.192564    1.064297
H      -3.293097    0.520694   -0.816933
H      -1.910573    0.413334   -1.938155
H      -3.565773   -1.956233   -0.889308
H      -2.336218   -2.026886   -2.180515
