18

N      -0.118879    1.214660   -0.728724
C      -0.038024    0.103248   -0.109666
C      -1.327470   -0.673652    0.127467
N      -1.642742   -1.140784    1.464807
C      -0.783004   -2.187060    1.989283
C       0.659396   -1.779833    2.332511
C       1.601188   -1.401510    1.201369
O       2.749130   -1.795647    1.174308
N       1.190448   -0.490297    0.231402
H       0.802617    1.632845   -0.882189
H      -2.126977   -0.019458   -0.225434
H      -1.303746   -1.552286   -0.532247
H      -1.709638   -0.363258    2.113237
H      -1.242675   -2.579384    2.903355
H      -0.777016   -3.012142    1.265994
H       0.625949   -0.918415    3.015388
H       1.165009   -2.588256    2.866565
H       1.987627   -0.159647   -0.299353
