23

C       0.897953    2.248504   -0.719888
C       1.518897    0.982706   -0.129728
N       1.422422   -0.115433   -1.083786
C       1.667649   -1.500672   -0.665227
C       2.052695   -1.891670    0.746853
C       0.292843   -1.060532   -1.076100
C      -0.830605   -0.956885   -0.059306
C      -0.196723   -1.426271   -2.466363
H       1.363916    2.491084   -1.678962
H      -0.175140    2.115493   -0.892338
H       1.027409    3.097315   -0.040692
H       2.586091    1.151979    0.060461
H       1.058910    0.776551    0.848565
H       2.234288   -2.059811   -1.412498
H       1.470685   -1.381999    1.516141
H       1.915417   -2.969659    0.885560
H       3.110447   -1.671773    0.930849
H      -0.493514   -0.708031    0.947478
H      -1.556498   -0.194702   -0.366014
H      -1.367718   -1.909994    0.000685
H      -0.688992   -2.405976   -2.466341
H      -0.920970   -0.688259   -2.831240
H       0.637653   -1.453773   -3.171079
