25

C      -0.279418    1.504493    0.103708
C       0.005724    0.007278   -0.060085
C       0.794545   -0.421610   -1.325660
C       0.150725    0.149395   -2.599534
C       2.249770    0.100434   -1.259495
O       2.986007   -0.385056   -0.146482
C       0.836340   -1.956719   -1.322740
C      -0.124690   -2.835573   -2.081668
C       1.328360   -2.786754   -2.486402
H       0.639695    2.097917    0.138678
H      -0.902441    1.898549   -0.705137
H      -0.813521    1.683928    1.042243
H       0.570349   -0.341366    0.811894
H      -0.945571   -0.539745   -0.055783
H       0.280248    1.234693   -2.647424
H       0.600792   -0.266383   -3.506942
H      -0.924026   -0.053385   -2.631500
H       2.760880   -0.141587   -2.203944
H       2.253221    1.190846   -1.162264
H       3.157937   -1.318882   -0.300779
H       1.109636   -2.351541   -0.346783
H      -0.496762   -3.729431   -1.593106
H      -0.841343   -2.367280   -2.746160
H       1.570848   -2.283419   -3.416218
H       1.954824   -3.647986   -2.279480
