21

C      -0.135834    1.539877   -0.120459
C       0.053586    0.016798   -0.048337
C       0.793162   -0.508871   -1.285890
C       0.781187   -0.435737    1.233623
O       2.094598    0.097987    1.361829
C      -0.021642   -0.129508    2.527027
O      -1.356692   -0.535692    2.423407
C       0.638193   -0.803422    3.713809
O       0.011808   -1.539370    4.440567
H       0.822960    2.072483   -0.170294
H      -0.685158    1.807973   -1.027709
H      -0.703351    1.928165    0.730546
H      -0.938859   -0.443883   -0.003055
H       1.818522   -0.127185   -1.317122
H       0.845516   -1.602596   -1.282021
H       0.285240   -0.200450   -2.204910
H       0.921907   -1.521933    1.172971
H       2.034383    1.056298    1.280746
H       0.045631    0.960385    2.707475
H      -1.506939   -1.121801    3.183881
H       1.712276   -0.594993    3.864587
