17

O       0.093784    1.311365    0.256847
C      -0.009366   -0.101797    0.160502
C      -1.466506   -0.453240   -0.124701
C      -1.664859   -1.987920   -0.257886
C      -2.503666   -2.358221    0.989156
O      -2.375790   -1.266136    1.886334
C      -2.369268   -0.101676    1.073485
H       0.981600    1.530462    0.553358
H       0.631082   -0.493068   -0.646220
H       0.297608   -0.592259    1.098175
H      -1.778269    0.083350   -1.025229
H      -2.175976   -2.260518   -1.184074
H      -0.700753   -2.506473   -0.254698
H      -3.560632   -2.504012    0.712019
H      -2.158923   -3.259274    1.502966
H      -1.986589    0.732726    1.664222
H      -3.390261    0.140964    0.735564
