20

C      -0.252694    1.298887    0.038524
O      -0.075389   -0.106052    0.022648
C       0.700385   -0.583338    1.067004
O       0.043526   -0.376128    2.316642
C       0.259437   -1.480283    3.185714
C       0.659094   -2.655401    2.304517
C       1.395651   -3.824804    2.899387
N      -0.327695   -2.837156    1.220313
C       0.915504   -2.076945    0.966324
H       0.715334    1.824085    0.041007
H      -0.796017    1.560731   -0.871936
H      -0.830126    1.620343    0.912534
H       1.673527   -0.052908    1.079567
H       1.065695   -1.262408    3.904348
H      -0.666473   -1.660355    3.742915
H       0.758718   -4.375650    3.601114
H       1.717028   -4.524191    2.120844
H       2.286245   -3.496866    3.446347
H      -0.218238   -3.769969    0.826362
H       1.667098   -2.464682    0.287721
