18

C       0.044942    1.630912   -0.032887
C       0.093482    0.118263   -0.018688
C       1.411503   -0.622222   -0.130871
O       2.610378    0.097124   -0.101617
C       0.642281   -0.666609    1.163174
C       1.180701    0.008310    2.409978
C       1.926186   -0.960248    3.309270
O       2.900849   -0.684423    3.957493
H       0.980875    2.066685    0.323170
H      -0.128710    2.001119   -1.049497
H      -0.767009    2.011145    0.596180
H      -0.744040   -0.356327   -0.524480
H       1.443472   -1.528029   -0.736063
H       2.730115    0.519769   -0.958537
H       0.133380   -1.606602    1.366061
H       1.847949    0.840346    2.183584
H       0.343623    0.403153    3.006730
H       1.482346   -1.984296    3.352283
