22

C       0.214479    1.572703   -0.092014
C       0.084371    0.060645   -0.095314
C       0.664820   -0.758716   -1.284961
O       1.739451   -0.180044   -1.999752
C       2.974035   -0.472075   -1.335545
C       2.755987   -1.802455   -0.598690
C       1.281400   -1.700121   -0.218491
N       0.988736   -0.681595    0.814587
C       0.485918   -1.115484    2.097349
H       1.226500    1.875420   -0.370495
H      -0.485442    2.020444   -0.805571
H      -0.010180    1.980010    0.899592
H      -0.970048   -0.231049    0.059700
H      -0.058511   -1.143961   -2.005626
H       3.756483   -0.511949   -2.098437
H       3.219831    0.321841   -0.618596
H       2.913318   -2.653575   -1.270175
H       3.411490   -1.912345    0.269000
H       0.778305   -2.663402   -0.065064
H       1.244441   -1.711695    2.616157
H       0.263120   -0.246255    2.725328
H      -0.435392   -1.725719    2.022460
