23

C      -0.033958    1.560726    0.214425
C      -0.000899    0.028548    0.122388
C      -1.386062   -0.605246    0.144322
C      -2.254405   -0.480735   -1.130890
O      -2.331438   -1.912517   -1.278267
C      -1.482966   -2.123132   -0.131689
C       1.341976    2.190722    0.170961
C       2.009896    2.476676   -1.151607
C       1.523572    3.614693   -0.286926
H      -0.638047    1.963969   -0.610109
H      -0.547534    1.857181    1.139774
H       0.521712   -0.269878   -0.796346
H       0.592471   -0.372433    0.955756
H      -1.922962   -0.305349    1.049489
H      -3.245592   -0.027256   -1.007959
H      -1.753286   -0.006596   -1.986943
H      -0.533785   -2.604260   -0.406067
H      -1.976499   -2.728940    0.638292
H       2.004795    1.865645    0.970041
H       3.078611    2.316748   -1.241843
H       1.452646    2.257202   -2.057204
H       0.641910    4.157042   -0.613478
H       2.259987    4.231517    0.216316
