20

C       0.008308   -1.229838   -0.021639
C      -0.003662   -0.027312   -0.009387
C      -0.005114    1.431516    0.029893
C      -0.758441    1.966266    1.271518
C      -0.756927    3.500388    1.309221
C       0.668425    4.067110    1.247889
C       1.425910    3.537245    0.022315
C       1.432140    2.003252   -0.019889
H       0.014528   -2.291217   -0.041614
H      -0.537360    1.794964   -0.862535
H      -1.782388    1.579015    1.273616
H      -0.270690    1.570092    2.171335
H      -1.336111    3.883584    0.457413
H      -1.268293    3.849701    2.213222
H       0.641423    5.162449    1.233466
H       1.210748    3.780330    2.159552
H       0.951359    3.922184   -0.891191
H       2.455387    3.912595    0.017885
H       1.993187    1.608366    0.836739
H       1.939150    1.641821   -0.920301
