22

C      -0.161636    1.530667    0.025534
C      -0.102871    0.002343    0.093334
C       0.824094   -0.518171    1.197219
C       0.876449   -2.046747    1.276911
C       1.806075   -2.567299    2.381546
C       1.825229   -4.074161    2.456149
C       1.931894   -4.804942    3.724339
O       0.679149   -4.698964    3.045786
H       0.829374    1.957757   -0.165425
H      -0.829244    1.870918   -0.772303
H      -0.526336    1.954824    0.967785
H      -1.113060   -0.397027    0.253172
H       0.229324   -0.395576   -0.874807
H       1.837886   -0.124902    1.035204
H       0.496102   -0.114949    2.165702
H      -0.131549   -2.443215    1.451788
H       1.201564   -2.451791    0.308366
H       2.829805   -2.207733    2.208260
H       1.488417   -2.169940    3.353296
H       2.178728   -4.580449    1.554727
H       2.371346   -5.801564    3.745163
H       2.006118   -4.247747    4.657793
