17

O      -0.133697    1.454989    0.004494
C       0.032679    0.068003   -0.029593
C      -1.258107   -0.697957    0.065657
C      -0.472515   -0.677648   -1.240871
C      -0.114851   -2.168986   -1.360919
O       0.875789   -2.524488   -0.384510
C       0.129839   -2.678293    0.840430
C      -1.262225   -2.202939    0.401384
O      -1.290351   -2.817329   -0.911656
H       0.588225    1.851556   -0.494554
H       0.928759   -0.303720    0.460215
H      -2.169675   -0.124912    0.181079
H      -0.818138   -0.131536   -2.110891
H       0.188492   -2.532039   -2.341536
H       0.117445   -3.731881    1.139635
H       0.579520   -2.074374    1.634059
H      -2.101916   -2.551005    0.999052
