10

F       0.086005    0.066397    0.002396
C      -0.062647    1.366684    0.011195
C      -1.258604    1.995851    0.030642
N      -1.294505    3.365420    0.038141
C      -0.186054    4.030280    0.026671
C       1.143999    3.425429    0.006245
O       2.214504    3.950270   -0.006525
O       1.096813    1.996104   -0.000997
H      -2.188050    1.444940    0.040270
H      -0.211042    5.115641    0.032229
