21

C      -0.211147    1.549616   -0.010710
C       0.042543    0.041159    0.011765
C       0.891357   -0.496749   -1.196486
C       2.001378   -1.344927   -0.514897
C       1.251798   -1.894533    0.718803
C       0.831585   -0.504847    1.244895
C       2.173575    0.233164    1.263665
O       3.334954   -0.585661    1.474160
C       2.929653   -0.310629    0.127902
H       0.722409    2.119470   -0.058219
H      -0.807513    1.829338   -0.885652
H      -0.759543    1.874972    0.880368
H      -0.931751   -0.461071    0.006875
H       0.284723   -1.108231   -1.870490
H       1.312087    0.320221   -1.793271
H       2.483723   -2.077590   -1.163758
H       0.391980   -2.511405    0.444568
H       1.894878   -2.442886    1.405024
H       0.266712   -0.484732    2.179014
H       2.261925    1.257274    1.610526
H       3.624457    0.273528   -0.469232
