14

O       0.001695   -0.043481    0.002782
C       0.016317    1.156826    0.008693
O      -1.109276    1.969603    0.029560
C      -0.715963    3.301407    0.030448
C       0.619458    3.368180    0.011130
C       1.826171    4.269475   -0.002311
C       2.957065    3.242205   -0.024509
C       2.468612    1.996582   -0.023518
N       1.069323    2.041269   -0.002245
H      -1.502634    4.034416    0.045764
H       1.849987    4.929771   -0.878267
H       1.876336    4.920721    0.879293
H       4.003841    3.505948   -0.038836
H       2.971640    1.041976   -0.035894
