14

N       0.036763   -1.097287   -0.046912
C       0.054519    0.057614   -0.001662
C       0.023318    1.487933    0.080643
O       0.338740    2.241676   -1.102792
C       1.178021    2.397995    0.047351
C       0.683880    3.447033    1.080615
C      -0.781041    3.713477    0.666450
C      -0.849820    2.243457    1.133263
O       0.170815    2.558905    2.135910
H       2.211156    2.086527   -0.051417
H       1.381401    4.204256    1.432243
H      -1.271655    4.363718    1.388818
H      -1.019276    3.970831   -0.362933
H      -1.733657    1.745051    1.524741
