15

C       0.086036    1.527480    0.039259
C      -0.036905    0.043180    0.025866
C      -1.179343   -0.673399   -0.085888
O      -2.394997   -0.106644   -0.203447
C      -1.181813   -2.139256   -0.087618
O      -2.261261   -2.728313   -0.193093
C       0.128057   -2.735146    0.039058
C       1.213538   -1.940817    0.145366
O       1.166446   -0.602163    0.142158
H       0.715424    1.876412   -0.787017
H      -0.903027    1.976451   -0.056461
H       0.544425    1.874693    0.971961
H      -2.992216   -0.881248   -0.262350
H       0.234165   -3.812296    0.048272
H       2.231602   -2.297057    0.243944
