16

N      -0.132037    1.410443   -0.075682
C      -0.059299    0.021729   -0.117594
N      -1.093573   -0.807552   -0.059635
C      -0.597257   -2.079956   -0.267485
O      -1.427733   -3.146695   -0.324160
C       0.763051   -2.032453   -0.365748
C       2.154468   -2.404704   -0.853441
C       2.448034   -0.856955   -0.814711
N       1.087055   -0.681149   -0.253043
H       0.559437    1.832925    0.531152
H      -1.061887    1.703176    0.196007
H      -2.318265   -2.794897   -0.208255
H       2.770408   -2.996979   -0.170877
H       2.210489   -2.844751   -1.852129
H       3.248238   -0.529225   -0.146562
H       2.567935   -0.391237   -1.796046
