22

C      -0.349361    1.567916   -0.003459
C      -0.029605    0.076865    0.006748
C       0.984071   -0.547777   -1.025005
O       1.743343    0.297883   -1.867798
C       1.768357   -1.174929    0.133617
N       2.199921   -0.242865    1.142737
C       2.814984    1.057084    0.888299
C       0.797483   -0.571683    1.146331
C       0.189312   -1.166875    2.385099
H       0.542541    2.194659    0.008834
H      -0.929298    1.832565   -0.895778
H      -0.958137    1.835752    0.867144
H      -0.972049   -0.477665   -0.079687
H       0.489299   -1.330482   -1.616462
H       1.167693    0.615966   -2.570684
H       2.223685   -2.160593    0.104658
H       2.571689    1.728134    1.718651
H       3.901476    0.917357    0.881849
H       2.531330    1.522795   -0.057878
H      -0.155062   -0.382174    3.069951
H      -0.675684   -1.793154    2.140254
H       0.926979   -1.773038    2.916797
