17

O      -0.079989    1.280439   -0.329803
C       0.014023   -0.090658   -0.079106
C      -0.470467   -0.697547    1.232887
C      -1.258515   -0.869213   -0.029701
O      -2.471481   -0.097241   -0.195868
C      -3.075626   -1.204742   -0.895415
C      -2.301804   -1.515174   -2.133738
O      -1.645656   -0.559175   -2.895218
C      -1.800971   -2.045785   -0.797914
H      -1.015158    1.516677   -0.260417
H       0.892694   -0.521784   -0.547143
H       0.068372   -1.552272    1.629847
H      -0.894335   -0.030830    1.977643
H      -4.121518   -1.399785   -0.688809
H      -2.745929   -2.278412   -2.766198
H      -1.487329    0.212700   -2.336669
H      -1.646853   -3.090187   -0.562414
