18

C      -0.055531    1.552840    0.087202
C      -0.047484    0.056799   -0.210500
N      -1.323247   -0.542392    0.163470
C      -1.517631   -1.899484    0.015500
N      -2.726274   -2.365608   -0.237317
O      -2.567972   -3.779345   -0.241388
C      -1.285009   -4.070433   -0.017902
N      -0.955046   -5.405338   -0.062361
C      -0.546088   -2.934958    0.156073
H       0.908644    2.000125   -0.169708
H      -0.826096    2.066709   -0.498789
H      -0.255896    1.736709    1.146618
H       0.195129   -0.113242   -1.272280
H       0.742036   -0.427139    0.375151
H      -2.129946   -0.014769   -0.145551
H      -1.738822   -6.021126    0.104132
H      -0.143474   -5.656478    0.481739
H       0.508193   -2.854166    0.353708
