18

N      -0.113330    1.291464   -0.116209
C      -0.134658    0.039646   -0.260587
O      -1.094533   -0.689391    0.359136
C      -1.007154   -2.079675    0.223076
C      -1.238068   -2.758031   -1.100246
C      -2.245427   -2.904417    0.023284
C      -2.078050   -4.105868    0.932988
O      -0.681171   -4.161742    1.233898
C      -0.174427   -2.835200    1.249789
H       0.655442    1.689410   -0.651682
H       0.550689   -0.570346   -0.862104
H      -1.537049   -2.123714   -1.927093
H      -0.614042   -3.606160   -1.364638
H      -3.212040   -2.426186   -0.073387
H      -2.677462   -3.974065    1.847459
H      -2.345749   -5.063650    0.476336
H       0.895210   -2.890312    1.021486
H      -0.302836   -2.348148    2.229760
