18

O       0.025774    1.415458    0.016670
C      -0.017948    0.009379   -0.014999
C      -1.406640   -0.606800   -0.172878
C      -1.893033   -0.733053   -1.571982
C      -1.126131   -0.093008   -2.712896
O       0.243841    0.158841   -2.385625
C       0.684261   -0.597410   -1.248801
C       0.133785   -2.023584   -1.278277
N      -1.297059   -1.902033   -0.896040
H       0.029173    1.693702   -0.909686
H       0.440468   -0.347480    0.914519
H      -2.106103   -0.567983    0.655741
H      -2.962142   -0.825267   -1.750112
H      -1.174769   -0.744021   -3.599102
H      -1.582834    0.864599   -2.989291
H       1.771828   -0.515023   -1.229728
H       0.235186   -2.498305   -2.258689
H       0.638091   -2.655521   -0.540061
