18

C      -0.025422    1.554606    0.051845
O       1.349606    1.924232   -0.053944
C       2.125950    0.729499    0.068337
C       2.629141    0.279139   -1.309115
C       1.470227   -0.242058   -2.150728
N       0.949928   -1.579356   -1.795115
C       0.133276   -0.395051   -1.511380
C       0.030288    0.022839   -0.051739
O       1.261518   -0.239661    0.619220
H      -0.436133    1.879225    1.016344
H      -0.592149    2.026190   -0.758116
H       2.943247    0.903842    0.774893
H       3.101533    1.134886   -1.801276
H       3.386534   -0.502098   -1.183996
H       1.494256    0.013497   -3.206744
H       0.599233   -2.045506   -2.627924
H      -0.757386   -0.212557   -2.109579
H      -0.766081   -0.498113    0.484059
