18

C       0.077750    1.601417   -0.161188
C       0.023389    0.092691   -0.030257
C       0.479548   -0.789082   -1.232947
C       1.346448   -1.586121   -0.224910
C       2.883885   -1.613043   -0.314900
O       3.324374   -0.591396    0.587117
C       2.261364    0.087429    1.130935
O       2.396364    1.087205    1.777836
N       1.077062   -0.576460    0.818269
H       1.029155    1.938562   -0.582041
H      -0.728985    1.931013   -0.824355
H      -0.046727    2.085506    0.810116
H      -0.958992   -0.213626    0.343328
H      -0.296051   -1.344634   -1.763140
H       1.078774   -0.225657   -1.955226
H       0.934849   -2.568896    0.022310
H       3.302954   -2.568642    0.011994
H       3.259667   -1.388729   -1.319464
