18

O      -0.056348    0.002051   -0.178929
C      -0.065061    1.184636   -0.019919
C      -1.139744    2.247134    0.259477
N      -0.044092    3.224457    0.506432
C       1.016280    2.281611    0.037498
C       2.178571    2.068924    1.000349
C       3.040119    3.338796    1.149935
C       4.150269    3.164102    2.077302
C       5.058327    2.992468    2.845830
H      -1.768181    2.442600   -0.620240
H      -1.791668    2.063957    1.120494
H      -0.120793    4.064281   -0.054295
H       1.395366    2.505106   -0.972646
H       1.787549    1.783213    1.981917
H       2.792764    1.237536    0.638514
H       3.428301    3.637301    0.166495
H       2.397373    4.159342    1.492512
H       5.863490    2.852038    3.523398
