21

O      -0.055426    1.450912   -0.076117
C      -0.002029    0.036288   -0.198801
C      -1.376598   -0.517109    0.172563
C      -1.413950   -2.019237    0.131792
C      -1.606738   -2.804481   -1.141861
C      -2.584207   -3.003957   -0.019752
C      -1.970734   -3.950900    1.015852
C      -0.798833   -2.923440    1.197053
O       0.524547   -3.326596    0.905812
H       0.811461    1.802745   -0.297507
H       0.250017   -0.269030   -1.226501
H       0.762345   -0.398044    0.463679
H      -1.635020   -0.154018    1.175594
H      -2.121540   -0.098594   -0.514731
H      -1.967559   -2.215797   -1.979851
H      -0.915072   -3.597016   -1.414104
H      -3.638368   -2.775935   -0.121329
H      -2.565369   -4.077615    1.923571
H      -1.676015   -4.935629    0.637990
H      -0.852259   -2.447378    2.186506
H       0.831622   -3.895356    1.619202
