16

C      -0.099673    1.554279    0.091631
C       0.011291    0.032004    0.000214
C       0.747766   -0.488466   -1.278630
C       2.222456   -0.010557   -1.348281
C       0.726811   -1.963261   -1.250258
N       0.732072   -3.116131   -1.184076
C       0.029456   -0.031178   -2.483707
N      -0.527104    0.369195   -3.413098
H       0.878076    2.035926    0.179165
H      -0.610821    1.970383   -0.781475
H      -0.678825    1.824605    0.978693
H       0.555173   -0.369580    0.861418
H      -0.985952   -0.417296    0.016202
H       2.749161   -0.328861   -0.445512
H       2.723657   -0.438257   -2.218281
H       2.260472    1.077077   -1.423514
