16

C       0.153808    1.256510   -0.506523
C       0.235412   -0.177338   -0.016742
O       1.278523   -0.698092    0.298576
C      -1.076556   -0.915655    0.026497
C      -1.337650   -2.162669   -0.779869
O      -0.144553   -2.950081   -0.930062
C      -0.117020   -3.160968    0.461220
N       0.565454   -3.945858    1.150082
C      -1.290536   -2.265025    0.720903
H       1.156022    1.680067   -0.575756
H      -0.339459    1.301983   -1.484050
H      -0.450325    1.856449    0.184416
H      -1.959097   -0.282058    0.083160
H      -2.127774   -2.301293   -1.505265
H       1.242911   -4.453077    0.579281
H      -2.061186   -2.416137    1.462185
