18

C      -0.386858    1.397393   -0.051824
C       0.003640   -0.072933   -0.066225
C       1.252615   -0.473204   -0.820743
N       1.659715   -0.294554   -1.992800
O       1.845558   -1.111751    0.246938
C       0.739401   -0.728856    1.159381
C       1.264817    0.191131    2.252994
C       0.082746   -1.905957    1.704732
C      -0.480705   -2.862530    2.164702
H       0.446796    2.043746    0.233151
H      -0.704979    1.694207   -1.055055
H      -1.218344    1.577679    0.636397
H      -0.847795   -0.687259   -0.369997
H       2.579552   -0.714375   -2.138238
H       1.799766    1.038142    1.818246
H       0.439804    0.564939    2.865805
H       1.951589   -0.360664    2.899529
H      -0.972372   -3.714327    2.566404
