18

O       0.054167    1.371271   -0.159543
C       0.045863   -0.012293   -0.040307
C       0.389246   -0.792877    1.264691
N      -0.474746   -1.893963    0.672881
C      -1.298613   -0.764030    0.080929
C       0.352813   -2.249299   -0.534802
C       0.778480   -0.867362   -1.097896
C       1.471549   -3.188626   -0.131775
O       2.630458   -3.049735   -0.429634
H       0.941168    1.657869   -0.401200
H       1.426038   -1.070018    1.476416
H      -0.089830   -0.381005    2.154403
H      -1.964505   -0.348307    0.839674
H      -1.855094   -1.016956   -0.826154
H      -0.289542   -2.811390   -1.225304
H       0.411023   -0.677163   -2.109347
H       1.864745   -0.738430   -1.084616
H       1.125605   -4.047041    0.484481
