14

C       0.254455    1.639113   -0.003427
C      -0.072685    0.149477   -0.182275
N       0.658465   -0.423850   -1.302158
C       1.795869   -0.957074   -1.092962
N       2.476188   -1.137813    0.098813
C       2.493713   -1.518347   -2.238994
N       3.080132   -1.966304   -3.128449
H       1.306741    1.791954    0.259231
H       0.062008    2.181748   -0.932517
H      -0.361690    2.073898    0.789333
H       0.099657   -0.393266    0.761160
H      -1.139067    0.045737   -0.407216
H       2.238543   -0.534905    0.869063
H       3.450012   -1.388725    0.041813
