22

C       1.133497   -1.333785   -1.420850
C       0.356621   -0.454492   -0.437212
C       0.235548    0.981583   -0.957787
N      -1.008982   -0.998499   -0.322614
C      -1.908480   -0.641441    0.847604
C      -2.782175   -1.839077    0.390436
C      -1.302015   -2.313026    0.383616
C      -1.180614   -1.668355    1.789251
O       0.110114   -1.449155    2.291470
H       2.129297   -0.917951   -1.603996
H       1.264714   -2.348350   -1.031113
H       0.602023   -1.401091   -2.376087
H       0.896105   -0.437854    0.514562
H      -0.314304    1.616316   -0.254652
H       1.226994    1.424054   -1.098714
H      -0.296479    0.999596   -1.914457
H      -2.224897    0.382953    1.052495
H      -3.456022   -2.289174    1.121593
H      -3.222073   -1.724079   -0.597627
H      -0.901566   -3.266884    0.038300
H      -1.823147   -2.114037    2.563543
H       0.032835   -0.953894    3.112912
