21

C       0.104861    1.549447   -0.081854
C       0.027129    0.009478   -0.002993
C       0.665343   -0.485997    1.315941
O       2.012496   -0.094909    1.469273
C      -1.433338   -0.508270   -0.059784
C      -2.314545    0.001927   -1.198550
O      -3.589034   -0.596298   -1.016790
C       0.806616   -0.549616   -1.183668
O       1.816109   -1.210381   -1.103258
H       1.108550    1.877482    0.197745
H      -0.120124    1.928116   -1.084202
H      -0.611570    1.998162    0.614311
H       0.114150   -0.052812    2.158077
H       0.554884   -1.579211    1.376791
H       2.499274   -0.575201    0.787101
H      -1.436166   -1.604522   -0.095183
H      -1.924516   -0.231931    0.881564
H      -2.383886    1.099216   -1.165322
H      -1.890387   -0.269676   -2.177904
H      -4.175558   -0.274020   -1.707361
H       0.391524   -0.298201   -2.185225
