18

C      -0.156510    1.576264   -0.183477
C       0.143431    0.095824    0.062914
C       0.693928   -0.607501   -1.176884
C       0.997266   -2.079392   -0.973780
O       0.811310   -2.656629    0.072854
C       1.538536   -2.842100   -2.187789
C       0.651152   -4.037626   -2.505296
O       0.268821   -4.314734   -3.610584
H       0.744679    2.122773   -0.483578
H      -0.900646    1.706647   -0.977181
H      -0.548025    2.053417    0.719821
H       0.861727   -0.013680    0.882537
H      -0.762212   -0.424112    0.392904
H      -0.004727   -0.529434   -2.023949
H       1.615337   -0.123518   -1.534407
H       1.653864   -2.222695   -3.079149
H       2.519764   -3.240757   -1.897173
H       0.378241   -4.640091   -1.614350
