21

C      -0.102686    1.541255    0.207902
C      -0.054910    0.029689    0.180445
C       1.186145   -0.694016   -0.291209
C       0.791181   -0.739015    1.158689
C       1.620491   -0.202553    2.345547
C       1.177580   -1.440450    3.161034
O      -0.045763   -1.221106    3.893069
C      -0.839790   -1.830391    2.847004
C       0.390128   -1.999761    1.938948
H       0.870780    1.963151    0.478316
H      -0.376715    1.945719   -0.772761
H      -0.834856    1.906140    0.936866
H      -0.998519   -0.444251   -0.084163
H       1.070616   -1.595316   -0.885717
H       2.051122   -0.092579   -0.558119
H       2.696982   -0.165819    2.149244
H       1.302796    0.746164    2.786365
H       1.923598   -1.984745    3.745711
H      -1.286720   -2.773069    3.189349
H      -1.633856   -1.166736    2.483089
H       0.561833   -2.970184    1.472970
