17

O      -0.016637   -0.026477   -0.127774
C      -0.031954    1.170278   -0.002719
C      -1.272316    2.076052    0.103726
C      -0.633990    3.403850    0.509659
O      -0.027119    3.169785    1.810154
C       1.321583    2.889828    1.418577
C       1.698716    4.138846    0.591832
C       0.646963    3.531633   -0.364869
C       1.157639    2.108058    0.053523
H      -1.766161    2.137562   -0.874943
H      -1.991039    1.693376    0.831289
H      -1.294770    4.270452    0.553447
H       1.889708    2.502564    2.262185
H       1.500223    5.108757    1.054027
H       2.706639    4.098837    0.174200
H       0.521051    3.832279   -1.404194
H       2.084850    1.739783   -0.379463
