19

C      -0.190551    1.632094   -0.155195
C      -0.016472    0.118770   -0.033273
C       0.967202   -0.624545   -1.033769
C       1.862866   -0.804208    0.204350
C       2.516928   -1.645969    1.339701
C       1.954469   -0.285663    1.945264
C       2.624950    0.446701    0.776385
N       0.699021   -0.601946    1.123392
H       0.723195    2.171274   -0.411671
H      -0.924680    1.846679   -0.940679
H      -0.582108    2.046242    0.779987
H      -1.018996   -0.317723   -0.047460
H       0.536472   -1.550341   -1.420644
H       1.386049   -0.037567   -1.854721
H       1.966537   -2.542338    1.624249
H       3.602371   -1.773023    1.358516
H       1.921998   -0.010939    3.002892
H       3.718548    0.428267    0.734238
H       2.242700    1.433037    0.530183
