17

O      -0.007790    1.327276    0.333181
C      -0.060167   -0.053992   -0.006136
C       0.617048   -0.942249    1.056257
C      -0.396344   -0.982497    2.220163
C      -1.766717   -0.996621    1.518065
C      -1.538966   -0.420892    0.101087
O      -1.824104   -1.733909   -0.486234
C      -2.073659   -2.286414    0.750914
O      -2.396360   -3.404426    0.990699
H       0.916945    1.587954    0.384160
H       0.325930   -0.233236   -1.018426
H       0.774529   -1.944734    0.644009
H       1.597354   -0.555663    1.351028
H      -0.258833   -1.841067    2.881593
H      -0.316123   -0.073337    2.822053
H      -2.593776   -0.618129    2.117834
H      -2.210273    0.341681   -0.291798
