18

C      -0.091329   -1.215296   -0.008830
C      -0.047807   -0.012729    0.002414
C       0.021491    1.418354    0.012210
C       0.510646    2.163005    1.278382
C       1.347139    2.116851    0.063171
C       2.782372    1.721528   -0.274194
C       2.404762    2.204039   -1.694401
N       1.752621    3.291639   -0.808267
C       3.072687    3.218267   -0.006693
H      -0.137373   -2.275806   -0.018510
H      -0.755953    1.932849   -0.546927
H      -0.002910    3.088428    1.517111
H       0.787225    1.551058    2.130029
H       3.341868    0.834588    0.035833
H       3.203886    2.593905   -2.330127
H       1.682444    1.614628   -2.262343
H       2.980790    3.588085    1.016854
H       3.916270    3.675218   -0.530489
