23

C       0.221766    1.322057    0.374776
C      -0.046709   -0.144696    0.033173
C      -1.537013   -0.461394   -0.114346
C      -1.836689   -1.960925   -0.276027
O      -2.082884   -2.389274    1.052477
C      -2.721573   -1.308652    1.717900
C      -4.244488   -1.391778    1.570443
C      -2.276724   -1.312250    3.174240
O      -2.253359   -0.118250    1.074896
H       1.292105    1.509456    0.502670
H      -0.141095    1.985659   -0.418466
H      -0.289909    1.598031    1.300317
H       0.452673   -0.409651   -0.908351
H       0.371733   -0.798586    0.808429
H      -1.956840    0.123213   -0.943668
H      -2.709587   -2.131154   -0.922975
H      -0.992923   -2.533688   -0.669119
H      -4.627510   -2.289086    2.064427
H      -4.713527   -0.512600    2.020250
H      -4.528271   -1.425185    0.515289
H      -1.187814   -1.251834    3.227301
H      -2.706564   -0.455713    3.699725
H      -2.605698   -2.229642    3.669777
