23

C      -0.020011    1.527786   -0.023340
C      -0.000012   -0.001971    0.024870
C      -1.444141   -0.538096    0.042098
O       0.673860   -0.391064   -1.183776
C       0.950580   -1.777627   -1.296483
C       2.010101   -2.234866   -0.288847
C       1.751585   -1.649748    1.097791
C       2.235895   -0.252414    1.401169
C       0.761931   -0.509037    1.247397
H       0.997020    1.920309   -0.093633
H      -0.582863    1.872122   -0.896151
H      -0.488473    1.935816    0.877447
H      -1.952086   -0.274112   -0.889955
H      -1.483652   -1.623979    0.164323
H      -1.999984   -0.095834    0.874717
H       0.032388   -2.368511   -1.169974
H       1.295845   -1.929529   -2.323704
H       2.006135   -3.329543   -0.243912
H       3.004481   -1.938840   -0.642022
H       1.791614   -2.358861    1.918425
H       2.623216   -0.031912    2.389916
H       2.738234    0.269720    0.592579
H       0.173573   -0.497956    2.160631
