21

C       0.281118    1.535736    0.230417
C      -0.203335    0.132721   -0.151697
C       0.537779   -0.445522   -1.342031
C       1.884150   -1.147332   -1.140638
C       0.676813   -1.916204   -1.535899
C      -0.002100   -3.165602   -0.951184
C      -1.027493   -3.123973   -2.112792
C       0.396403   -2.897477   -2.682103
O       0.879797   -3.998494   -1.809076
H       1.346454    1.527945    0.483033
H       0.143074    2.239359   -0.597924
H      -0.268559    1.924774    1.093206
H      -0.086596   -0.543047    0.705230
H      -1.279326    0.163552   -0.369278
H       0.458587    0.149560   -2.250917
H       2.666874   -0.988121   -1.875388
H       2.245911   -1.249783   -0.121388
H      -0.133895   -3.474693    0.085735
H      -1.472591   -4.087450   -2.364365
H      -1.735671   -2.292407   -2.147301
H       0.741504   -2.882880   -3.716232
