17

N      -0.357875   -1.155737   -0.404556
C      -0.205583   -0.027975   -0.201072
C      -0.009467    1.405055    0.024642
N      -0.151866    1.859393    1.434342
C       1.112935    2.646246    1.354452
C       2.368617    1.986977    1.979755
C       2.279660    0.496570    1.879252
C       2.632587    1.268234    0.637257
C       1.441205    2.000309   -0.007400
H      -0.653986    1.944227   -0.681633
H      -0.994597    2.388215    1.621486
H       1.021928    3.726904    1.474040
H       3.068061    2.488956    2.637094
H       3.118466   -0.040177    2.310681
H       1.323771   -0.001040    1.992880
H       3.572795    1.104305    0.125978
H       1.689991    2.596686   -0.882913
