17

N      -0.115513   -1.236909   -0.147836
C      -0.034860   -0.088519   -0.039334
C       0.028709    1.362070    0.056504
C      -0.114922    2.115607    1.418412
C       0.677359    1.398497    2.508163
O       1.824847    0.760171    1.962822
C       2.431604    1.430171    0.865309
C       1.382343    2.142641    0.016219
N       0.782095    3.204339    0.896492
H      -0.662530    1.792285   -0.673311
H      -1.107506    2.421285    1.754134
H       0.955410    2.138798    3.272233
H       0.085550    0.605255    2.975625
H       3.161496    2.178631    1.206229
H       2.951897    0.657009    0.291284
H       1.776247    2.473354   -0.946506
H       0.224443    3.827023    0.313034
