21

C      -0.061779    1.751806   -0.194042
C      -0.028840    0.213903   -0.069474
C       0.733938   -0.419759   -1.264732
C       2.215624   -0.015589   -1.286853
C       2.840678   -0.102061    0.079792
C       2.128873   -0.206315    1.201326
C       0.623962   -0.233707    1.250289
C      -1.465852   -0.275287   -0.162736
O      -2.016049   -1.008259    0.618214
H       0.945785    2.168070   -0.121361
H      -0.491353    2.065461   -1.151881
H      -0.662215    2.195256    0.607159
H       0.665632   -1.510802   -1.176048
H       0.250953   -0.146490   -2.210424
H       2.755637   -0.665327   -1.986928
H       2.333711    1.000851   -1.689489
H       3.926529   -0.075649    0.128652
H       2.641939   -0.281219    2.157370
H       0.269079    0.404098    2.069937
H       0.268676   -1.240456    1.504654
H      -2.006501    0.103544   -1.063505
