17

O       0.024704    1.473654    0.123166
C      -0.010370    0.069304   -0.027572
C      -1.386101   -0.553806   -0.054229
C      -2.044538   -0.431940   -1.379921
C      -1.627533    0.657858   -2.358382
C      -0.118060    0.375078   -2.569327
C       0.218037   -0.577836   -1.427799
N      -1.003457   -1.470436   -1.214342
H       0.932770    1.740801    0.296419
H       0.611723   -0.423801    0.729554
H      -1.917526   -0.928763    0.815384
H      -3.052355   -0.832373   -1.437664
H      -2.192704    0.574917   -3.290926
H      -1.800092    1.654359   -1.945994
H       0.063406   -0.112126   -3.532198
H       0.486996    1.284335   -2.526505
H       1.136699   -1.151179   -1.555076
