14

O       0.013693    0.085494   -0.429043
C      -0.050734    1.203758   -0.026170
C      -1.306361    2.039872    0.248131
C      -0.783284    3.339538    0.832744
C       0.044996    3.231483    2.115789
C       0.736262    3.200551    0.795250
O       1.070497    1.940590    0.275157
C      -1.434428    4.575850    0.518448
N      -1.963755    5.573317    0.267007
H      -1.836467    2.200934   -0.694406
H      -1.973256    1.484701    0.912200
H       0.135207    4.134901    2.707175
H      -0.024936    2.307863    2.681084
H       1.394942    3.990991    0.461088
