20

C       0.050536    1.727025    0.720984
C      -0.017881    0.283154    0.229528
C       1.020138   -0.255819   -0.840700
C       2.153441   -0.177876    0.207973
C       0.903957   -0.808124    0.866542
O       0.747661   -1.631590   -0.355684
N      -1.418888   -0.070204    0.151790
C      -2.242305    0.511486   -0.905299
C      -1.969311   -0.951624   -0.864766
H       1.062259    2.075613    0.925064
H      -0.391925    2.398536   -0.021638
H      -0.539732    1.820034    1.637211
H       1.074212   -0.108545   -1.920918
H       2.950440   -0.898768    0.027654
H       2.530763    0.786956    0.544866
H       0.799500   -1.315010    1.826718
H      -3.201115    0.917742   -0.593792
H      -1.745258    1.078671   -1.691625
H      -1.308638   -1.361478   -1.619522
H      -2.728941   -1.642649   -0.508666
