20

O       0.033631    1.474259   -0.133138
C       0.059030    0.067838    0.084317
C      -1.338773   -0.534450    0.079465
C      -2.081561   -0.575710   -1.275346
N      -1.273302   -1.428512   -2.186050
C      -2.203850   -2.056697   -1.209820
C      -1.486268   -2.082664    0.122746
C      -0.539440   -3.122192    0.642032
C      -1.879380   -2.905507    1.311984
H      -0.219929    1.614009   -1.050903
H       0.679479   -0.444732   -0.661665
H       0.526544   -0.074183    1.065216
H      -1.955839   -0.053205    0.844850
H      -2.778389    0.154995   -1.667087
H      -1.749184   -1.428175   -3.088585
H      -3.005287   -2.705262   -1.544118
H      -0.395529   -4.021666    0.052578
H       0.349528   -2.790316    1.168284
H      -1.896043   -2.424152    2.284911
H      -2.646414   -3.662401    1.179188
