14

C      -0.000391    1.500977   -0.012274
C       0.002939    0.000070    0.028485
N       0.090598   -0.636868   -1.147435
C       0.093216   -1.968646   -1.106922
N       0.018652   -2.755552   -0.030077
C      -0.068156   -2.109945    1.133614
C      -0.080182   -0.723457    1.220098
C       0.188383   -2.643975   -2.384464
N       0.264367   -3.181379   -3.404593
H       0.913824    1.863872   -0.491910
H      -0.839608    1.856550   -0.617934
H      -0.074066    1.933714    0.987412
H      -0.130019   -2.729018    2.025109
H      -0.151526   -0.222663    2.178271
