18

C      -0.005574    1.324599    0.011641
O       0.043221   -0.109160    0.045611
C       0.736795   -0.638724    1.067342
O       1.295113    0.043714    1.909084
C       0.715734   -2.125578    1.064527
N      -0.017903   -2.858193    0.071083
C       1.998194   -2.790050    1.590818
C       0.799009   -2.763693    2.471425
O       0.730187   -2.015212    3.627964
H       1.001327    1.741435   -0.066090
H      -0.594755    1.578552   -0.869325
H      -0.478875    1.714249    0.915952
H      -0.990389   -2.565440    0.062614
H       0.347210   -2.660249   -0.856655
H       2.268029   -3.717701    1.100087
H       2.814853   -2.121588    1.839674
H       0.221455   -3.677859    2.553841
H       1.105877   -1.141901    3.427094
