21

O       0.280467    1.322749   -0.168200
C       0.132776   -0.088552   -0.222100
C      -1.306975   -0.436754    0.160053
C      -2.299338    0.147912   -0.860378
O      -3.625054    0.157415   -0.366920
C      -4.396029   -1.014078   -0.538743
C      -3.632387   -2.341074   -0.449606
O      -2.741207   -2.409159    0.643676
C      -1.434854   -1.955282    0.343781
H       1.164913    1.546485   -0.471690
H       0.353030   -0.471868   -1.233071
H       0.830187   -0.585836    0.471249
H      -1.525685    0.048917    1.118568
H      -2.034108    1.193260   -1.035816
H      -2.224376   -0.376825   -1.826944
H      -5.155367   -0.975710    0.249738
H      -4.924019   -1.000639   -1.508928
H      -4.370373   -3.143255   -0.325166
H      -3.092441   -2.544420   -1.387067
H      -1.064437   -2.469152   -0.561973
H      -0.809370   -2.280123    1.182104
