17

C      -0.087026    1.386523   -0.002865
O       0.072046   -0.017013   -0.016943
C       0.712074   -0.553828    1.122728
C      -0.279158   -0.773275    2.270352
O       0.352587   -1.437378    3.372724
C       1.236185   -2.410284    3.032877
N       1.701311   -2.713561    1.898562
C       1.310388   -1.908037    0.744687
H       0.879936    1.900660    0.104045
H      -0.531580    1.666512   -0.960730
H      -0.752104    1.730246    0.802490
H       1.512705    0.119438    1.468139
H      -0.673645    0.163067    2.670328
H      -1.117886   -1.381963    1.909412
H       1.539546   -2.955807    3.924478
H       0.577627   -2.461341    0.143475
H       2.189426   -1.768175    0.107445
