17

C       0.086025    1.311956    0.230778
O      -0.538090    0.177859   -0.344224
C       0.237965   -0.443358   -1.304877
C       1.344881   -1.363977   -0.912776
C       0.057150   -1.946682   -1.479246
C      -0.849817   -2.659414   -0.549849
O      -0.791086   -2.635543    0.659898
C      -1.956303   -3.506928   -1.193490
O      -2.071354   -3.678209   -2.378502
H       1.029105    1.045430    0.726757
H       0.293017    2.084329   -0.524757
H      -0.609081    1.714047    0.970241
H       0.350246    0.122160   -2.231894
H       2.238666   -1.417430   -1.523602
H       1.477002   -1.535276    0.150424
H       0.028118   -2.306073   -2.500314
H      -2.631979   -3.962180   -0.439144
