18

C      -0.053836    1.524852   -0.138322
C      -0.023470    0.032573    0.069279
O       1.241522   -0.625184   -0.065287
C       0.601418   -0.630772    1.226709
C       1.274328    0.038896    2.377458
C       1.280179   -0.752675    3.456193
C       0.573212   -2.038306    3.178863
N      -0.870336   -1.836377    2.841121
C       0.133274   -1.964800    1.761873
H       0.796116    2.013410    0.342880
H      -0.018587    1.759151   -1.207530
H      -0.978769    1.946749    0.268676
H      -0.848244   -0.506885   -0.402182
H       1.675366    1.042337    2.321692
H       1.696268   -0.498944    4.423397
H       0.870131   -2.963299    3.660277
H      -1.350398   -2.731830    2.931138
H       0.116684   -2.819220    1.094632
