18

C      -0.081487    1.552402   -0.074454
C       0.040767    0.041831    0.016852
O       0.796132   -0.442098   -1.098592
C       1.170399   -1.774901   -0.794007
C       1.533935   -1.774153    0.694865
N       2.786928   -1.094733    1.043147
C       2.200877    0.076376    1.465453
O       2.650589    1.128915    1.830346
C       0.782538   -0.516328    1.243569
H       0.898436    2.027594    0.003255
H      -0.541431    1.831197   -1.026204
H      -0.711112    1.929321    0.737040
H      -0.964558   -0.415287   -0.008048
H       0.331109   -2.471179   -0.961577
H       1.995591   -2.058469   -1.453346
H       1.390799   -2.735387    1.193214
H       3.738242   -1.275775    0.754418
H       0.169194   -0.623753    2.137657
