16

C      -0.027757   -1.263757   -0.050295
C       0.011516   -0.064054    0.009318
C      -0.008040    1.381287    0.017043
C       0.066879    2.133524    1.387744
N       1.512824    1.659202    1.479812
C       1.350617    2.158052    0.048361
C       0.555316    3.355890    0.593155
C       0.041582    4.635124    0.124195
O       1.089392    4.533489    1.126611
H      -0.042691   -2.324819   -0.084043
H      -0.746097    1.782116   -0.683011
H      -0.625824    2.066495    2.225760
H       2.054478    2.347129    2.011561
H       2.159467    2.119712   -0.680263
H       0.364198    5.039024   -0.833805
H      -0.909043    5.014693    0.494627
