14

O       0.092518    1.359040   -0.340025
C       0.033821    0.100003    0.283907
C      -1.363833   -0.498455    0.164379
N      -1.691515   -0.997373   -1.182811
C      -1.587634   -1.970803   -0.086340
C      -0.482083   -2.898883   -0.130459
N       0.392683   -3.653804   -0.141567
C      -2.408927    0.177232    0.902852
N      -3.252228    0.714102    1.483323
H      -0.036042    1.219728   -1.285483
H       0.751548   -0.614338   -0.139325
H       0.281854    0.253952    1.337648
H      -2.669846   -0.836773   -1.412040
H      -2.502397   -2.392848    0.320034
