21

C      -0.580788    1.681503   -0.136992
O      -0.142709    0.336950   -0.218336
C      -1.160699   -0.620274    0.054991
C      -0.842796   -1.969472   -0.552389
C       0.211359   -2.829188    0.108461
C      -1.241076   -3.034558    0.447641
C      -1.772584   -2.341129    1.698615
C      -1.319719   -0.872227    1.590151
O      -0.077587   -0.680545    2.249530
H       0.268638    2.312716   -0.408607
H      -1.406094    1.873837   -0.837647
H      -0.913340    1.951554    0.875381
H      -2.113964   -0.256180   -0.357204
H      -1.017605   -2.093892   -1.614929
H       0.681418   -3.573619   -0.525177
H       0.858513   -2.392572    0.857924
H      -1.728075   -3.946050    0.119187
H      -2.867717   -2.390905    1.711385
H      -1.410405   -2.778955    2.633964
H      -2.067849   -0.196576    2.028420
H       0.451663   -0.131811    1.652256
