17

O      -0.013150    1.376019   -0.076340
C       0.017848   -0.026014   -0.006666
C       0.947042   -0.533191   -1.110074
C       2.370176   -0.066299   -0.874772
O       3.257050   -0.790013   -0.497060
C       0.290533   -0.663327    1.422224
C      -1.119515   -1.247604    1.368014
O      -2.023199   -0.140810    1.178541
C      -1.374768   -0.699727    0.027867
H      -0.703186    1.656302    0.539688
H       0.937716   -1.625983   -1.140648
H       0.587202   -0.135154   -2.066699
H       2.543430    1.015531   -1.051804
H       1.085391   -1.412095    1.398565
H       0.476355    0.048600    2.229578
H      -1.523722   -2.131663    1.845095
H      -2.004135   -1.035135   -0.789408
