18

C       0.134051    1.522968    0.161595
C       0.066162    0.069938    0.113152
C       0.010019   -1.133282    0.086646
C      -0.037557   -2.568251    0.017098
N      -0.693101   -3.298923    1.133195
C      -1.310349   -3.330154   -0.190531
C      -2.646991   -2.622378   -0.335610
C      -3.772691   -3.493520   -0.016505
C      -4.685080   -4.233310    0.237807
H       1.172696    1.871547    0.167769
H      -0.363402    1.976664   -0.702830
H      -0.350440    1.910213    1.064640
H       0.851053   -3.027362   -0.412718
H      -0.190389   -4.162785    1.318902
H      -1.224118   -4.247566   -0.770051
H      -2.647437   -1.743751    0.317429
H      -2.746231   -2.251463   -1.364233
H      -5.498601   -4.874398    0.470526
