23

C      -0.159200    1.552360   -0.038554
C       0.012568    0.037665   -0.006411
O      -1.268245   -0.562951   -0.149434
C       1.202604   -0.651978   -0.773792
C       1.460138   -0.645120   -2.257287
C       2.134840   -0.135823    0.365583
C       0.861998   -0.659426    1.101331
C       0.578251   -0.669013    2.579767
C       0.949754   -1.892412    0.141101
H       0.769263    2.107918    0.095695
H      -0.582766    1.861524   -1.003641
H      -0.861796    1.861554    0.741867
H      -1.723367   -0.124781   -0.875180
H       1.631210    0.371495   -2.629981
H       2.341585   -1.244388   -2.510352
H       0.606713   -1.064811   -2.802455
H       3.039461   -0.728017    0.529219
H       2.363678    0.930355    0.413346
H       0.607578    0.343564    2.998116
H      -0.414444   -1.086700    2.777777
H       1.314255   -1.274510    3.119604
H       0.033925   -2.455160   -0.027550
H       1.812663   -2.547011    0.295052
