20

C       0.084487    1.494869    0.278239
C       0.038402   -0.000949   -0.048922
C      -1.375120   -0.541353   -0.146580
C      -2.117120   -0.910628    1.128466
C      -1.670836   -1.987212    0.172578
C      -2.662670   -2.685628   -0.726247
O      -3.587929   -1.787101   -1.363196
C      -3.136099   -0.545862   -1.668578
N      -2.151609    0.083305   -1.185301
H       1.115534    1.860969    0.297477
H      -0.471962    2.064120   -0.470394
H      -0.364334    1.698609    1.256386
H       0.550106   -0.185777   -1.001841
H       0.581826   -0.571876    0.714167
H      -1.585268   -0.816013    2.069485
H      -3.173543   -0.668341    1.179361
H      -0.841665   -2.618967    0.480430
H      -2.124613   -3.229288   -1.514402
H      -3.284888   -3.403820   -0.183053
H      -3.776128   -0.089275   -2.421102
