18

C       0.931696   -0.315058    0.164866
N      -0.454915    0.018853    0.501294
C      -0.621288    1.450078    0.749665
C      -1.423060   -0.505139   -0.457196
C      -1.143892   -0.119252   -1.857139
N      -0.857430    0.274796   -2.904794
C      -1.622069   -2.044048   -0.348176
N      -1.428014   -2.503725    0.910759
O      -1.980613   -2.709518   -1.293372
H       1.578393   -0.009987    0.991986
H       1.032565   -1.395286    0.031261
H       1.279290    0.182602   -0.753569
H      -0.406780    2.068047   -0.137252
H      -1.645938    1.653044    1.075132
H       0.058049    1.754196    1.550821
H      -2.401317   -0.079002   -0.198700
H      -1.065846   -1.878889    1.613105
H      -1.544431   -3.485948    1.095325
