23

C       0.011340    1.505922    0.199726
C      -0.119472   -0.006050   -0.010610
C       0.643220   -0.511075   -1.227947
C       2.200637   -0.502140   -1.204511
C       2.189917   -1.880121   -1.907741
C       2.590327   -1.984909   -3.396176
O       3.581934   -2.990137   -3.108110
C       3.264661   -2.959631   -1.701295
C       0.708190   -2.041734   -1.494442
H       1.058624    1.798482    0.332400
H      -0.379491    2.060032   -0.661023
H      -0.540177    1.834981    1.085774
H       0.242452   -0.534939    0.881939
H      -1.179767   -0.273367   -0.113634
H       0.285130    0.007518   -2.125928
H       2.724479    0.314219   -1.709804
H       2.584387   -0.580160   -0.180195
H       1.810113   -2.360246   -4.072667
H       3.036684   -1.081263   -3.833399
H       4.127001   -2.658644   -1.090482
H       2.895459   -3.929798   -1.340869
H       0.614262   -2.613251   -0.563744
H       0.022922   -2.467067   -2.233539
