20

C      -0.104854    1.438252    0.183453
C      -0.078237   -0.063960   -0.102279
C      -1.479101   -0.670416   -0.112002
O      -2.395572   -0.234887    0.565116
N      -1.640490   -1.755396   -0.926936
C      -2.891086   -2.491503   -0.966302
C      -3.066428   -3.450798    0.230587
C      -4.434015   -4.091483    0.233227
O      -4.640553   -5.277295    0.192713
H       0.909190    1.827678    0.307557
H      -0.583667    1.986064   -0.633610
H      -0.675874    1.635170    1.092838
H       0.435446   -0.278365   -1.046737
H       0.488960   -0.582727    0.682328
H      -0.841500   -2.130413   -1.410519
H      -3.704464   -1.759943   -0.965649
H      -2.932958   -3.045782   -1.908372
H      -2.304766   -4.235288    0.231182
H      -2.970677   -2.851031    1.144581
H      -5.279367   -3.364945    0.270697
