21

C       0.160590    1.594364    0.417065
C       0.182652    0.087760    0.261293
C       1.519815   -0.568961    0.118584
C       0.717819   -0.701760    1.433453
C       0.674229   -2.241938    1.275164
C      -0.458407   -2.936523    0.485396
C      -1.919996   -2.563593    0.627996
O       0.162086   -2.535230   -0.778079
C       1.362721   -2.090074   -0.089477
H       1.010522    1.947581    1.011093
H       0.207581    2.090156   -0.558366
H      -0.755665    1.925902    0.917459
H      -0.626715   -0.316026   -0.335296
H       2.423049   -0.005110   -0.085272
H       0.898879   -0.205376    2.380078
H       1.134870   -2.787521    2.098062
H      -0.359978   -4.028364    0.586424
H      -2.490282   -2.954831   -0.220927
H      -2.324379   -3.016125    1.540199
H      -2.077220   -1.485386    0.685072
H       2.253384   -2.646441   -0.390984
