13

C      -0.000632    1.526521   -0.009597
C      -0.028953    0.026727    0.007965
C      -1.145846   -0.713700   -0.146969
C      -1.095797   -2.166177   -0.118819
O      -2.021261   -2.920386   -0.244427
O       0.172167   -2.726210    0.076011
N       1.322571   -1.983210    0.236053
C       1.204927   -0.701080    0.201047
H       0.654684    1.892483   -0.808204
H      -0.998320    1.942221   -0.163095
H       0.397711    1.917995    0.933355
H      -2.126307   -0.276864   -0.298233
H       2.144025   -0.170464    0.331909
