18

C       0.082648    1.466565    0.273256
C      -0.031528   -0.014951   -0.126992
C      -1.430461   -0.541591   -0.102537
C      -2.167302   -0.998284   -1.121143
N      -3.459623   -1.408751   -0.710254
C      -3.561547   -1.334872    0.658121
O      -4.427963   -1.791260    1.370376
C      -2.298620   -0.588047    1.136234
O      -1.705079   -1.240355    2.237203
H       1.125839    1.795127    0.242046
H      -0.496150    2.103808   -0.402920
H      -0.286429    1.630034    1.290521
H       0.389608   -0.161572   -1.128536
H       0.580541   -0.612597    0.561082
H      -1.905994   -1.066344   -2.168309
H      -4.077936   -1.981170   -1.263168
H      -2.610406    0.437000    1.410946
H      -2.437366   -1.595748    2.759888
