15

C       0.097723    1.450535    0.008824
C      -0.056685   -0.029911   -0.004220
C      -1.177617   -0.748075   -0.108771
C      -1.136077   -2.209153   -0.103077
N      -2.208180   -2.897190   -0.203411
N       0.147728   -2.784754    0.018659
C       1.152389   -2.007095    0.112087
O       2.401400   -2.454571    0.230309
O       1.172575   -0.662488    0.112056
H       0.738250    1.779238   -0.816885
H      -0.875781    1.933976   -0.083346
H       0.572667    1.780760    0.939207
H      -2.138150   -0.259551   -0.199587
H      -1.967763   -3.890414   -0.179555
H       2.339027   -3.420018    0.225548
