17

O      -0.052449    1.484698   -0.230346
C      -0.035359    0.081449   -0.104577
C      -1.385271   -0.605713   -0.095087
C      -1.780690   -0.873770   -1.549695
C      -0.815766   -1.792577   -0.849269
C       0.306851   -0.802124   -1.342949
C      -0.676672   -0.279261   -2.442781
C      -0.535099   -0.949044   -3.722051
C      -0.411818   -1.498961   -4.784641
H       0.850336    1.810350   -0.154928
H       0.560595   -0.238714    0.761142
H      -2.124545   -0.608506    0.695175
H      -2.808596   -1.068392   -1.824741
H      -0.832622   -2.849289   -0.633476
H       1.332628   -1.053350   -1.602193
H      -0.682871    0.808656   -2.568301
H      -0.307396   -1.980463   -5.724964
