19

N      -0.041796    1.458026    0.032791
C      -0.034818   -0.007506    0.010116
C       0.477640   -0.599290    1.377973
C      -0.798814   -1.338274    1.821731
C      -1.227691   -2.052286    0.506398
C      -1.475718   -0.591146    0.035104
C      -1.907108   -0.296202    1.498344
C       0.732221   -0.524436   -1.140491
N       1.337631   -0.881535   -2.059734
H       0.910328    1.806176    0.108400
H      -0.406132    1.815908   -0.846808
H       1.333835   -1.265127    1.249453
H       0.757825    0.213894    2.052403
H      -0.755071   -1.861295    2.776840
H      -0.487216   -2.652848   -0.029186
H      -2.159938   -2.610060    0.612596
H      -2.100011   -0.351270   -0.826188
H      -2.909931   -0.674226    1.707405
H      -1.789934    0.723942    1.865939
