18

C       0.003398    1.524800    0.043389
C       0.058449    0.015513    0.013924
C      -0.817240   -0.816568    0.932530
C       0.694431   -0.835394    1.100634
C       1.437749   -1.922005    0.393964
C       1.167412   -1.784266   -1.044156
C       0.414221   -0.693264   -1.257657
N       2.174472   -2.758476    1.023816
O       2.765650   -3.683312    0.145365
H       0.953542    1.964599   -0.278459
H      -0.782856    1.903627   -0.620127
H      -0.211465    1.890427    1.051953
H      -1.374808   -0.288764    1.700254
H      -1.311131   -1.694373    0.530623
H       1.115608   -0.405015    2.000328
H       1.517352   -2.489658   -1.783307
H       0.063007   -0.351599   -2.225649
H       3.282296   -4.229052    0.746896
