14

O       0.504275    0.619855   -0.870804
C      -0.136595    0.291614    0.339456
C      -1.464232   -0.405896    0.174529
C      -1.953964   -0.791646   -1.028678
C      -3.233576   -1.448780   -1.125722
O      -3.817787   -1.848401   -2.089141
O      -3.866792   -1.629798    0.144500
C      -3.273634   -1.212630    1.262784
N      -2.140929   -0.622712    1.365058
H       0.029455    1.353342   -1.275279
H       0.537237   -0.381520    0.883736
H      -0.289288    1.163585    0.993463
H      -1.401564   -0.634960   -1.944857
H      -3.875357   -1.429553    2.141543
