18

C       0.738927    1.495607   -0.067937
O       1.492536    0.284052    0.104762
C       0.087955    0.190700   -0.003978
C      -0.805746   -0.458650    1.053216
N      -1.357042   -1.377411    0.017371
C      -2.801979   -1.271891   -0.243899
C      -2.914136   -0.321271   -1.415588
C      -1.712227    0.020519   -1.877124
C      -0.628748   -0.646488   -1.075613
H       0.714564    2.157260    0.797291
H       0.869107    1.993529   -1.028191
H      -0.269025   -0.972859    1.857221
H      -1.550298    0.218635    1.494367
H      -3.238866   -2.252836   -0.482316
H      -3.327563   -0.909570    0.650959
H      -3.865498   -0.002937   -1.826505
H      -1.511935    0.663351   -2.725965
H       0.046864   -1.265651   -1.679992
