21

C      -0.199959    1.586858    0.077714
C      -0.041893    0.069752    0.063730
C      -1.256880   -0.614688   -0.563700
C       1.299534   -0.484922   -0.477742
O       1.494746   -1.292777    0.704306
C       0.405723   -0.642063    1.385187
C       0.880830    0.210073    2.536242
C       2.176705   -0.042268    3.179441
O       1.997212    1.065911    2.291316
H       0.663504    2.080515    0.527627
H      -0.315743    1.963199   -0.945264
H      -1.095648    1.885741    0.634558
H      -1.409184   -0.271767   -1.593225
H      -1.131786   -1.702141   -0.584824
H      -2.169018   -0.389597    0.000733
H       1.246210   -1.097151   -1.385654
H       2.091778    0.265433   -0.583359
H      -0.320400   -1.371561    1.773820
H       0.084502    0.664029    3.129891
H       2.317820    0.218733    4.227014
H       2.801845   -0.840847    2.789373
