12

O       0.015852    1.466019    0.125849
C       0.071135    0.065110    0.156319
C       0.464443   -0.538639   -1.125175
C       0.828144   -1.028938   -2.160300
C       1.102269   -0.402941    1.195193
O       1.926769    0.353356    1.647496
C       1.056240   -1.859028    1.662423
O       0.136147   -2.590392    1.414144
H       0.878097    1.778989    0.438168
H      -0.913276   -0.322965    0.446468
H       1.125665   -1.458874   -3.085284
H       1.927044   -2.147937    2.285554
