22

C       0.283549    0.993759   -0.367067
N       0.074340   -0.433408   -0.248343
C      -1.095286   -0.825321    0.001073
O      -1.366040   -2.130988    0.178130
C      -2.754319   -2.502899    0.253064
C      -3.344298   -2.734030   -1.156809
C      -3.180341   -4.254551   -1.449601
C      -2.436742   -4.837061   -0.225289
C      -2.804168   -3.878549    0.919180
H       0.711923    1.223509   -1.349588
H      -0.632586    1.595111   -0.241160
H       1.013533    1.324244    0.381184
H      -1.966539   -0.159259    0.116439
H      -3.294389   -1.732090    0.815634
H      -4.399259   -2.442761   -1.167983
H      -2.831726   -2.104968   -1.888813
H      -4.164148   -4.723049   -1.554427
H      -2.642082   -4.439664   -2.382143
H      -2.709056   -5.875132   -0.018096
H      -1.355198   -4.803324   -0.387843
H      -2.137995   -3.935372    1.782993
H      -3.828547   -4.066560    1.262672
