27

C      -0.017441    1.586565   -0.309280
C      -0.011981    0.103571    0.071638
C      -1.394580   -0.549567   -0.026616
C      -1.397729   -2.035704    0.358142
C      -2.774825   -2.660910    0.257690
C      -3.296229   -3.213054   -1.052872
C      -3.033525   -4.147097    0.108600
C      -1.877163   -5.125346    0.010377
C      -4.239791   -4.710635    0.838293
H       0.981692    2.026050   -0.226713
H      -0.359639    1.729155   -1.340459
H      -0.687798    2.159321    0.341403
H       0.690978   -0.438630   -0.574978
H       0.370646   -0.010602    1.094785
H      -2.098927   -0.006083    0.618743
H      -1.779660   -0.442242   -1.049693
H      -0.690066   -2.570707   -0.286185
H      -1.015701   -2.142681    1.383410
H      -3.518372   -2.141686    0.861064
H      -4.323340   -3.009657   -1.338995
H      -2.603976   -3.244015   -1.889711
H      -1.036893   -4.723659   -0.561025
H      -1.504120   -5.400358    1.004493
H      -2.198805   -6.048787   -0.485890
H      -4.622892   -5.606701    0.334805
H      -3.984354   -4.994031    1.866699
H      -5.055392   -3.982225    0.886499
