23

C      -0.014760    1.507055    0.163011
C       0.037689    0.008419   -0.021440
C      -0.175462   -0.527004   -1.231501
C      -0.110509   -1.982133   -1.644474
C      -0.921501   -3.019006   -0.810194
C      -1.480034   -2.551385    0.543393
C      -0.478802   -2.018142    1.555326
C       1.008555   -2.071665    1.345332
C       0.286940   -0.739179    1.245054
H       0.937417    1.888065    0.554843
H      -0.227574    2.024941   -0.775502
H      -0.784832    1.790836    0.892255
H      -0.366179    0.170750   -2.044111
H      -0.442128   -2.048331   -2.685467
H       0.943447   -2.289224   -1.673580
H      -1.776795   -3.356766   -1.405980
H      -0.302651   -3.909421   -0.652107
H      -2.237881   -1.777399    0.365152
H      -2.012363   -3.398837    0.991977
H      -0.810813   -2.107504    2.586146
H       1.645389   -2.219527    2.210916
H       1.394940   -2.520579    0.440427
H       0.443370   -0.085999    2.098291
