19

O      -0.255301    1.464311   -0.261849
C      -0.002470    0.081818   -0.060680
C      -1.353662   -0.613418    0.011256
C      -1.254660   -2.110152    0.238918
O      -0.195431   -2.661683    0.443861
C      -2.559762   -2.881308    0.157705
C      -2.925982   -3.387119   -1.271058
O      -2.860129   -4.756493   -0.851715
C      -2.502897   -4.381418    0.497972
H       0.590790    1.919324   -0.301919
H       0.590486   -0.348205   -0.880859
H       0.554651   -0.102144    0.868319
H      -1.954536   -0.177246    0.821241
H      -1.927480   -0.422522   -0.905720
H      -3.365877   -2.319303    0.634236
H      -3.925143   -3.103575   -1.623355
H      -2.191090   -3.155933   -2.053442
H      -1.503759   -4.732549    0.773273
H      -3.241565   -4.730628    1.228134
