19

C      -0.013408    1.642010    0.030114
C      -0.197435    0.120212   -0.038683
C       0.586918   -0.501313   -1.183105
C       2.113810   -0.799573   -1.142075
C       1.886693   -1.991435   -0.186357
C       0.825401   -2.044492   -1.324419
O       1.922416   -1.724321   -2.284765
C      -0.116995   -3.074678   -1.639517
C      -0.931818   -3.927132   -1.874117
H       1.032662    1.908557    0.215396
H      -0.314953    2.120127   -0.907960
H      -0.615186    2.075320    0.834462
H       0.079289   -0.324516    0.922739
H      -1.259499   -0.113035   -0.186923
H       0.299774   -0.072867   -2.147955
H       2.957428   -0.113136   -1.198782
H       2.641520   -2.775419   -0.246258
H       1.547433   -1.805895    0.833618
H      -1.646420   -4.683295   -2.088449
