19

C      -0.041469    1.517004    0.047592
C       0.119011   -0.005026    0.012656
C       0.774877   -0.526581   -1.269730
C       0.617065   -2.063514   -1.433959
O      -0.573966   -2.175801   -2.193064
C      -0.512457   -1.113590   -3.105277
O       0.109343   -0.025698   -2.436925
C       2.248520   -0.147426   -1.380956
O       2.973927    0.060006   -0.444350
H       0.930708    2.018672    0.041661
H      -0.612485    1.864787   -0.816949
H      -0.569434    1.825184    0.954502
H       0.735276   -0.338088    0.854681
H      -0.859404   -0.489834    0.105088
H       1.470156   -2.505078   -1.973046
H       0.483625   -2.580882   -0.483204
H       0.082047   -1.386224   -3.994729
H      -1.530225   -0.840436   -3.400297
H       2.607173   -0.097637   -2.433738
