15

N       0.039487    1.373282    0.132588
C       0.012844    0.015029    0.041579
N      -1.128209   -0.651634    0.023108
H      -2.018139   -0.176679    0.061170
C      -1.249061   -2.143715   -0.008989
O      -2.398737   -2.549343   -0.013627
C      -0.008654   -2.785423   -0.029504
C       1.237999   -2.112952   -0.016740
N       2.466017   -2.503709   -0.028651
N       1.144442   -0.673157    0.015054
H       0.896617    1.847163   -0.103680
H      -0.801309    1.875753   -0.101118
H      -0.011291   -3.866193   -0.055311
H       2.506905   -3.520215   -0.051672
H       2.045685   -0.217200    0.042886
