25

C       0.346403    1.522641   -0.180898
C       0.093368    0.056194    0.178563
C      -1.263403   -0.462729   -0.315661
C      -1.508252   -1.923151    0.050894
C      -1.717743   -2.319003    1.541811
C      -2.774073   -3.359224    1.081587
C      -2.863762   -2.629023   -0.288661
C      -4.072478   -1.713607   -0.400681
O      -5.223731   -2.542911   -0.500390
H       1.320555    1.862591    0.184672
H       0.327009    1.673703   -1.266141
H      -0.418454    2.175094    0.255285
H       0.892386   -0.568715   -0.242326
H       0.153177   -0.069763    1.267264
H      -2.059342    0.168980    0.101778
H      -1.318494   -0.342499   -1.406990
H      -0.694715   -2.529200   -0.366890
H      -0.850353   -2.687274    2.095230
H      -2.166083   -1.502057    2.117400
H      -2.348836   -4.361612    0.985080
H      -3.702964   -3.431268    1.651431
H      -2.849620   -3.274267   -1.172305
H      -4.140071   -1.055344    0.480922
H      -3.974923   -1.064498   -1.285485
H      -5.999001   -1.975855   -0.544287
