16

C       0.028441    1.510601   -0.296457
C       0.039022    0.030307    0.117264
O       0.634565   -0.130340    1.381892
C      -1.363369   -0.544923    0.082646
N      -1.992524   -0.618840   -1.101699
C      -3.212319   -1.126038   -1.052820
C      -3.770641   -1.538361    0.161460
N      -3.098199   -1.437649    1.301248
N      -1.869213   -0.932086    1.253217
H       1.052524    1.890877   -0.278207
H      -0.381546    1.632658   -1.302402
H      -0.568896    2.095941    0.409428
H       0.624388   -0.529660   -0.628316
H      -0.061028   -0.446569    1.977596
H      -3.762791   -1.211071   -1.987100
H      -4.769815   -1.956131    0.226178
