19

C      -0.244499    1.183714    1.134130
N       0.240558   -0.175586    1.254268
C       0.983996   -0.771985    0.289243
O       1.317854   -0.245511   -0.757636
C       1.413052   -2.207588    0.575281
O       0.923135   -2.639753    1.848845
C       1.233146   -3.902052    2.229256
C       0.643981   -4.193799    3.584960
N       1.926353   -4.652311    1.478971
H       0.100616    1.570042    0.174240
H      -1.339355    1.220438    1.161808
H       0.146293    1.819063    1.936894
H       0.030816   -0.718411    2.075524
H       1.035565   -2.858268   -0.218529
H       2.504726   -2.266582    0.547392
H      -0.443925   -4.077751    3.557601
H       0.885603   -5.208329    3.904670
H       1.028646   -3.485223    4.325040
H       2.068009   -5.562483    1.910286
