15

O       0.089852    1.349081    0.014407
C       0.072688   -0.000405    0.062484
N       0.077178   -0.727892   -1.054569
N       0.056006   -2.027324   -0.623707
C       0.038960   -2.096621    0.722497
C       0.049004   -0.803056    1.214012
C       0.030136   -0.857927    2.712251
C       0.008559   -2.360246    2.962845
C       0.013816   -3.062050    1.809470
H       0.104050    1.594089   -0.919509
H       0.055274   -2.762082   -1.307989
H       0.907612   -0.392315    3.180562
H      -0.846681   -0.370632    3.159249
H      -0.008719   -2.786421    3.957890
H       0.001714   -4.139084    1.710318
