17

C       0.021079    1.520979    0.043047
C      -0.076425    0.030809   -0.010615
C      -0.044365   -0.782022   -1.082577
C      -0.081117   -2.196582   -0.653106
C       0.876331   -2.577280    0.577180
O       1.354680   -1.426612    1.222785
C      -0.023186   -0.850664    1.209841
C      -0.565266   -2.262629    0.762121
O      -1.684867   -2.946034    1.164707
H       0.943835    1.843652    0.541599
H       0.012223    1.955451   -0.960395
H      -0.812003    1.958285    0.608166
H       0.085883   -0.465859   -2.111019
H      -0.303296   -3.020064   -1.321150
H       1.492800   -3.467684    0.573337
H      -0.271346   -0.431876    2.185690
H      -1.551935   -3.244478    2.072098
