17

C      -0.297567    1.561420    0.433712
C      -0.053622    0.092630    0.108699
O       0.744781   -0.561822    1.083968
C      -1.398598   -0.655131   -0.134564
O      -2.031619   -0.165285   -1.289874
C      -1.136340   -2.144449   -0.269595
O      -1.132809   -2.690356   -1.351124
C      -0.922333   -2.992225    0.985761
O      -1.137488   -2.590654    2.099644
H       0.654654    2.090363    0.525062
H      -0.895488    2.030028   -0.351907
H      -0.839557    1.660633    1.382323
H       0.514385    0.010224   -0.825482
H       0.258586   -0.576761    1.917426
H      -2.054488   -0.493983    0.732137
H      -1.849162   -0.809539   -1.990241
H      -0.605841   -4.030563    0.759547
