18

C       0.019324    1.522252    0.010036
C       1.322510    0.755855   -0.006539
C       0.010331    0.019479    0.002055
C      -0.404768   -0.742886    1.244982
O       0.026611   -2.097385    1.160796
C      -0.456365   -2.704631   -0.008103
O       0.004233   -2.084825   -1.179439
C      -0.428537   -0.729544   -1.240818
H      -0.266601    2.030823    0.925537
H      -0.284003    2.040592   -0.894317
H       1.903317    0.753934   -0.922866
H       1.920733    0.744155    0.898440
H       0.044255   -0.323140    2.149497
H      -1.502905   -0.711224    1.358541
H      -0.078597   -3.728808   -0.017212
H      -1.564950   -2.704125    0.002500
H      -1.528641   -0.696776   -1.333012
H       0.003152   -0.300068   -2.149196
