19

C      -0.287384    1.179598    0.004862
O       0.283658   -0.123066    0.051015
C       0.787452   -0.603732   -1.150030
C       1.945723    0.154915   -1.755926
C       0.708816   -2.103627   -1.255324
N       0.166308   -2.945423   -0.230296
C      -0.237006   -1.259633   -2.114233
C      -1.630613   -1.222314   -1.789157
N      -2.756345   -1.184191   -1.520543
H       0.471934    1.948377   -0.186210
H      -1.072767    1.246937   -0.756703
H      -0.728948    1.356299    0.987270
H       2.743656    0.270442   -1.015013
H       2.352120   -0.387020   -2.614556
H       1.651367    1.150575   -2.103138
H       1.505367   -2.584076   -1.816916
H       0.898886   -3.177521    0.434730
H      -0.541063   -2.437350    0.292958
H      -0.026507   -1.206796   -3.177277
