17

C      -0.668172    0.642749    0.141854
O       0.726986    0.382782   -0.092017
C       0.988240   -0.490031   -1.085319
C       0.784210   -1.842741   -1.233682
C       0.107172   -2.785591   -0.294438
O      -1.323589   -2.676861   -0.303360
N       1.284627   -2.249645   -2.457349
C       1.787989   -1.178934   -3.021395
N       1.627305   -0.073830   -2.232343
H      -1.084753    1.252490   -0.670005
H      -1.228854   -0.292780    0.220510
H      -0.720933    1.200856    1.078133
H       0.423271   -3.807260   -0.541331
H       0.397314   -2.578488    0.740134
H      -1.604763   -2.802065   -1.216350
H       2.284698   -1.136586   -3.978991
H       1.940380    0.866358   -2.410607
