21

C       0.483054    1.432540   -0.084709
C      -0.214646    0.065801    0.082705
C      -1.730163    0.276113    0.229735
C       0.126500   -0.897056   -1.092839
C       1.318438   -1.776608   -0.603737
C       1.200951   -1.660401    0.910095
C       0.380993   -0.677362    1.266005
C       1.288729   -3.145499   -1.107354
C       1.258108   -4.274801   -1.519199
H       1.559462    1.312620   -0.243256
H       0.070041    1.978296   -0.940605
H       0.345561    2.055111    0.806128
H      -2.150188    0.737901   -0.670968
H      -2.246483   -0.674753    0.394955
H      -1.956548    0.935231    1.075401
H      -0.726353   -1.552262   -1.290067
H       0.357561   -0.367607   -2.020949
H       2.271958   -1.326812   -0.920734
H       1.765440   -2.301474    1.576785
H       0.174354   -0.377643    2.288996
H       1.232741   -5.271796   -1.883147
