20

C       0.279779    1.572867    0.241856
C      -0.105331    0.113849   -0.037343
C       0.482183   -0.419530   -1.303288
C       0.852097   -1.779598   -1.790960
C       0.246706   -1.507524   -3.170040
O      -1.091036   -1.934897   -3.291465
C       0.442668   -0.000464   -2.840818
C       1.965980    0.103942   -2.723409
N       1.921055   -0.763797   -1.494141
H       1.365643    1.674815    0.326999
H      -0.061149    2.233370   -0.562327
H      -0.169477    1.923665    1.175521
H       0.235865   -0.525542    0.785945
H      -1.199072    0.019146   -0.072927
H       0.910843   -2.718546   -1.253484
H       0.761390   -1.886151   -4.059009
H      -1.543840   -1.728271   -2.465211
H      -0.183906    0.745217   -3.327617
H       2.574427   -0.286793   -3.548293
H       2.331129    1.092261   -2.434156
