20

C       0.615964    0.599197   -0.265736
O      -0.714187    0.930234    0.090654
C      -1.594661   -0.092239    0.002359
C      -1.492630   -1.411172   -0.362480
C      -2.810651   -1.975966   -0.242653
C      -3.163009   -3.401742   -0.543119
C      -3.656512   -0.980538    0.188670
C      -5.118108   -0.964973    0.489384
N      -2.892771    0.172115    0.334659
H       1.205904    1.509328   -0.147872
H       1.015935   -0.186397    0.388125
H       0.671963    0.256079   -1.306797
H      -0.600352   -1.926961   -0.678464
H      -2.599954   -4.100385    0.088062
H      -4.225870   -3.600905   -0.379810
H      -2.938688   -3.664230   -1.584420
H      -5.326150   -0.693250    1.533040
H      -5.666725   -0.255548   -0.144705
H      -5.551538   -1.952818    0.319648
H      -3.223565    1.071862    0.636443
