17

C       0.067342   -1.190392   -0.050969
C       0.013680    0.012161   -0.011244
C      -0.053596    1.430669    0.047009
C      -1.219753    2.270331    0.588465
C      -0.749334    3.455229   -0.314168
C       0.228934    4.336868    0.458876
O       1.266109    3.430017    0.870375
C       1.199444    2.320891    0.011004
C       0.197442    2.479292   -1.068394
H       0.116284   -2.250286   -0.083293
H      -2.178068    1.863487    0.259919
H      -1.245897    2.446561    1.668732
H      -1.513604    3.988880   -0.876173
H       0.650714    5.135004   -0.170293
H      -0.207972    4.784938    1.356746
H       2.150654    1.829304   -0.149245
H       0.344237    2.350958   -2.132206
