16

N      -0.020927    1.345131    0.168877
C       0.052146   -0.059089   -0.017490
C       0.810745   -0.982575   -0.967270
N      -0.082434   -2.108056   -0.459552
C      -1.071433   -1.046654    0.037380
C      -0.198200   -0.916320    1.281117
O      -0.427389   -0.305459    2.474197
C       0.386692   -2.231507    0.956452
N       0.950349   -3.164917    1.575139
H       0.902026    1.758780    0.254764
H      -0.514201    1.819285   -0.579944
H       0.606151   -0.788877   -2.025203
H       1.881177   -1.158375   -0.812091
H      -2.138326   -1.044878   -0.130301
H      -0.418884    0.648784    2.294347
H       1.136282   -3.944665    0.939967
