21

C      -0.055734    1.415659   -0.015678
C       0.014721   -0.079435    0.059646
C       0.211077   -0.990860   -1.163752
C       0.959908   -2.177661   -0.518198
C       1.961494   -1.581590    0.502198
C       0.698657   -0.953518    1.142542
C      -0.182814   -2.125620    0.567647
C      -1.024913   -1.128864   -0.292492
C      -2.483669   -1.039939   -0.604245
H       0.944764    1.859963   -0.086793
H      -0.621051    1.740876   -0.896136
H      -0.546127    1.843114    0.866912
H       0.294581   -0.592740   -2.168081
H       1.184103   -3.054318   -1.125405
H       2.395680   -2.356594    1.142805
H       2.751943   -0.917844    0.135978
H       0.664394   -0.617737    2.179379
H      -0.535025   -2.978816    1.143452
H      -3.084963   -0.924684    0.305848
H      -2.694831   -0.180058   -1.249901
H      -2.839885   -1.936924   -1.125170
