15

C      -0.101716    1.427659    0.007757
N      -0.045447   -0.029066    0.009534
C       0.636526   -0.633801    1.038865
C       1.244211   -0.134986    2.164167
N       1.734066   -1.187276    2.898431
N       1.487406   -2.301885    2.320427
N       0.786689   -2.001943    1.153673
C       0.251255   -3.000664    0.328384
O       0.440403   -4.173641    0.463468
H       0.890551    1.897771   -0.045246
H      -0.694305    1.754667   -0.848465
H      -0.599703    1.771349    0.918665
H       0.121940   -0.427509   -0.903162
H       1.366450    0.884964    2.485259
H      -0.385330   -2.563921   -0.462738
