16

C      -0.016016    1.436791    0.021784
N       0.019949   -0.022711    0.005120
C       0.044349   -0.696616   -1.204128
C       0.063833   -2.048916   -1.221617
N       0.067152   -2.811351   -0.084374
C       0.058579   -2.176184    1.055542
N       0.099518   -2.833619    2.239544
C       0.020808   -0.699158    1.206379
O      -0.014962   -0.150524    2.305190
H       0.871802    1.842452   -0.472375
H      -0.909500    1.798998   -0.495383
H      -0.037366    1.755994    1.062158
H       0.043303   -0.080616   -2.093046
H       0.078167   -2.583749   -2.163940
H      -0.040706   -3.828736    2.248424
H      -0.062001   -2.283768    3.067653
