14

O       0.327570    0.069983    0.414750
C       0.405095    1.249342    0.546351
O       0.802150    2.064285   -0.467812
C       0.866079    3.458014   -0.223807
C       2.346681    3.917615   -0.119436
C       2.428768    5.376265   -0.084438
C       2.450661    6.575701   -0.069660
C       2.985561    3.310193    1.058576
N       3.455074    2.813560    1.989375
H       0.162415    1.806645    1.470095
H       0.405434    3.966908   -1.072803
H       0.327147    3.732502    0.689702
H       2.864751    3.537540   -1.009573
H       2.488742    7.637712   -0.053313
