13

C       0.027257   -1.207511    0.000269
C       0.040650   -0.004975    0.019096
C       0.050575    1.427728    0.049360
C       0.444601    2.240954    1.285455
C       1.637613    1.574240    1.962237
O       2.386419    1.569436    0.712001
C       1.323381    2.251154    0.064561
H       0.022969   -2.268823   -0.026651
H      -0.747270    1.910394   -0.511354
H      -0.205927    2.991282    1.713166
H       2.134449    2.214736    2.697950
H       1.493898    0.566250    2.363917
H       1.568681    3.001731   -0.678381
