17

C      -0.067136    1.461093   -0.015945
C       0.084079   -0.025146    0.075037
C       0.837861   -0.843823   -0.923858
C       1.088689   -2.231055   -0.360408
C      -0.309741   -2.051256    0.251829
C      -0.176516   -0.903990    1.278013
O       0.829652   -0.935888    2.263709
N      -0.661582   -0.983361   -0.832951
H       0.748621    1.964498    0.514059
H      -0.050363    1.790032   -1.059321
H      -1.014529    1.787964    0.425498
H       1.300558   -0.378764   -1.787760
H       1.084663   -2.983993   -1.152354
H       1.929832   -2.388473    0.319863
H      -0.983727   -2.890393    0.415290
H      -1.158609   -0.659710    1.705584
H       0.489295   -1.395981    3.037309
