18

N       0.101824    1.248198   -0.093705
C       0.035390    0.011376    0.134137
O      -1.029172   -0.689963   -0.322640
C      -1.085437   -2.068525   -0.021790
C      -1.318540   -2.318898    1.468102
O      -1.280238   -1.468936    2.315535
C      -2.199135   -2.706914   -0.834309
C      -3.491791   -1.969396   -1.077201
C      -2.531419   -2.211701   -2.215946
H       0.961367    1.628184    0.296698
H       0.774036   -0.602646    0.662311
H      -0.128959   -2.559574   -0.278563
H      -1.521265   -3.386411    1.713304
H      -2.268347   -3.778255   -0.669427
H      -4.414522   -2.537195   -1.042849
H      -3.563733   -0.955168   -0.703149
H      -1.979322   -1.355634   -2.584033
H      -2.789664   -2.949764   -2.966973
