16

O      -0.256848    1.438141   -0.048656
C      -0.149332    0.048331    0.021576
C      -0.466934   -0.733777    1.245713
C      -1.593823   -0.083575    2.057379
C      -2.522671   -0.091727    0.804843
C      -1.418125   -0.756967   -0.019066
C      -1.610269   -1.865773   -0.960246
O      -2.686123   -2.323733   -1.267570
H       0.454245    1.819962    0.477255
H       0.653734   -0.377350   -0.583666
H       0.179545   -1.534191    1.588125
H      -1.959158   -0.731084    2.855695
H      -1.354614    0.897016    2.477400
H      -3.384234   -0.750746    0.915210
H      -2.851767    0.881635    0.437647
H      -0.664557   -2.285198   -1.378100
