14

C       0.006727    1.481650    0.019370
C      -0.034653   -0.014831    0.043121
C      -1.164425   -0.738340   -0.124728
F      -2.337490   -0.162066   -0.326011
C      -1.153039   -2.188369   -0.093388
N      -2.194879   -2.909485   -0.247065
N       0.160738   -2.634434    0.127973
N       1.281033   -1.901203    0.294105
N       1.196683   -0.639850    0.254822
H       0.682423    1.825237   -0.770318
H      -0.984354    1.902999   -0.149330
H       0.401689    1.860587    0.967336
H      -1.983055   -3.906293   -0.192566
H       0.335914   -3.628766    0.176505
