18

C      -0.026846    1.575077    0.095615
C       0.063214    0.046429    0.074068
C       0.670439   -0.521906   -1.217036
C       2.155728   -0.152132   -1.412728
C       0.516186   -2.040147   -1.267317
O       0.165201   -2.711560   -0.321335
C       0.820444   -2.661864   -2.550850
C       1.053756   -3.168358   -3.617971
H       0.959166    2.048951    0.060917
H      -0.606942    1.952524   -0.754412
H      -0.520561    1.917967    1.009910
H       0.649519   -0.309792    0.928623
H      -0.936168   -0.381345    0.205266
H       0.117022   -0.130879   -2.084025
H       2.559535   -0.600750   -2.324167
H       2.274537    0.931120   -1.490946
H       2.754616   -0.500741   -0.564609
H       1.257150   -3.632196   -4.552636
