17

C       0.283773    1.540695   -0.458759
N       0.057838    0.144408   -0.104975
C       1.223888   -0.717767   -0.007212
C       0.477333   -0.337605    1.228427
C       1.077244    0.534613    2.258072
N       2.227950    1.205150    2.110209
N       2.360292    1.846510    3.263690
N       1.409519    1.655457    4.166021
C       0.576256    0.822142    3.544575
H       1.223421    1.959663   -0.073245
H       0.290492    1.616978   -1.550598
H      -0.547648    2.144780   -0.081534
H       1.116558   -1.719135   -0.416985
H       2.207319   -0.268386   -0.133284
H      -0.227464   -1.053171    1.646024
H       3.152576    2.440468    3.448308
H      -0.320835    0.469280    4.028002
