16

N       0.083642   -1.132893   -0.051139
C       0.025702    0.023932   -0.034021
C      -0.046415    1.445593   -0.005255
C      -1.252668    2.268829    0.445110
C      -0.687304    3.478086   -0.403550
C       0.214015    4.268177    0.518550
C       1.304650    3.543983    0.791379
C       1.279550    2.295534   -0.020212
C       0.264410    2.453523   -1.105114
H      -2.162065    1.867026   -0.005972
H      -1.402566    2.432924    1.515709
H      -1.411722    4.032048   -0.996147
H      -0.085277    5.191373    0.998713
H       2.079298    3.774557    1.510834
H       2.169452    1.703960   -0.196266
H       0.418449    2.282279   -2.162861
