18

C       0.061145    1.462089    0.079161
C      -0.051097   -0.068135   -0.017615
C      -1.514344   -0.508708   -0.064423
C       0.781357   -0.619509   -1.222313
N       2.033115   -1.011272   -0.563993
C       1.718714   -1.133111    0.781916
N       0.609000   -0.643474    1.185043
C       2.669779   -1.758356    1.663222
N       3.449684   -2.281508    2.336492
H       1.109054    1.776652    0.076732
H      -0.444406    1.937266   -0.768224
H      -0.399563    1.816472    1.004671
H      -2.006921   -0.116292   -0.960719
H      -1.592664   -1.599645   -0.076631
H      -2.050922   -0.139567    0.813632
H       0.289136   -1.483256   -1.689515
H       0.959063    0.137231   -1.990990
H       2.618238   -1.716817   -0.987658
