18

O      -0.332721    0.057456    0.240346
C      -0.087239    1.204437   -0.030933
C       1.201560    1.956592    0.131137
C       1.592766    3.007497    1.098954
C       1.360629    2.709321    2.586645
C       0.138955    1.849834    3.027342
C       1.008677    0.555327    2.877191
C       2.190276    1.426088    2.379694
N       2.430678    1.735831    0.901251
H      -0.835408    1.833404   -0.569014
H       1.484522    2.259095   -0.884726
H       1.948532    3.969086    0.737776
H       1.683945    3.510306    3.250078
H      -0.182443    2.050413    4.051677
H      -0.741444    1.915293    2.382983
H       1.242268    0.098649    3.842822
H       0.647163   -0.212844    2.198474
H       3.164231    1.271051    2.843012
