25

C       0.126035    1.547435    0.204661
C       0.014305    0.023243    0.121652
C      -1.426448   -0.462573   -0.087605
C      -1.517667   -1.976587   -0.136079
O      -1.132674   -2.601503    1.113063
C      -2.251948   -3.504971    1.053344
C      -2.887537   -2.729566   -0.129214
C      -4.095332   -1.891437    0.290295
C      -3.189941   -3.543293   -1.383945
H       1.163119    1.863175    0.355684
H      -0.236917    2.024047   -0.713189
H      -0.466236    1.943128    1.037339
H       0.643646   -0.348378   -0.697864
H       0.405608   -0.430998    1.038848
H      -2.060650   -0.078855    0.719681
H      -1.823954   -0.056397   -1.028491
H      -0.874331   -2.347167   -0.951777
H      -1.938930   -4.530033    0.808397
H      -2.817564   -3.521264    1.993086
H      -3.905847   -1.339389    1.215206
H      -4.372496   -1.169071   -0.485122
H      -4.962335   -2.539255    0.463177
H      -4.042900   -4.212835   -1.224224
H      -3.440049   -2.888607   -2.226920
H      -2.332435   -4.156609   -1.678967
