20

C       0.152930    1.489138   -0.422713
C       0.007586    0.053055    0.019105
N       1.235822   -0.759290    0.118401
C       0.451352   -0.478121    1.334040
C       1.140694    0.352782    2.402600
O       0.199835    0.925935    3.292328
C       2.140566   -0.506014    3.162741
C       2.544341   -0.186240    4.533213
O       1.572601   -1.215550    4.276608
H       1.079835    1.931171   -0.051359
H       0.173811    1.550322   -1.515996
H      -0.687746    2.091829   -0.063753
H      -0.866750   -0.447822   -0.396178
H       1.071084   -1.708642   -0.203619
H      -0.141978   -1.293097    1.749925
H       1.682245    1.176796    1.927499
H      -0.020061    0.224945    3.922568
H       2.808773   -1.098431    2.539399
H       3.500586   -0.543341    4.910220
H       2.148327    0.708779    5.006496
