15

C       0.208144    1.422836   -0.011962
O       0.172718    0.037177    0.299136
C      -1.096581   -0.547810    0.084669
C      -1.313732   -0.764806   -1.435332
O      -2.282307   -0.392922   -2.034219
C      -1.160568   -1.839330    0.749728
C      -1.250773   -2.938167    1.242569
C      -1.312548   -4.239017    1.863918
O      -2.290827   -4.948399    1.859816
H       1.224073    1.760948    0.198319
H      -0.022890    1.619746   -1.067835
H      -0.498395    1.988868    0.611459
H      -1.912315    0.099081    0.443094
H      -0.453204   -1.272391   -1.920777
H      -0.369272   -4.546454    2.357911
