20

C       0.188200    1.402285    0.281484
C      -0.021140   -0.096937    0.159221
C      -1.504641   -0.451365    0.135864
N       0.611146   -0.760663   -1.101990
C       2.077790   -1.283516   -0.979025
C       3.096596   -0.888064    0.107926
C       2.136854   -0.587587    1.252056
C       0.912067   -1.061249    0.931198
C       0.966239   -1.958783   -0.306516
H       1.238238    1.677193    0.164161
H      -0.393060    1.918557   -0.489590
H      -0.154911    1.763688    1.256687
H      -2.003603    0.036059   -0.707310
H      -1.657499   -1.529513    0.049859
H      -1.979978   -0.111456    1.061572
H       2.413176   -1.571832   -1.971636
H       3.817842   -1.710408    0.224012
H       3.679144    0.015178   -0.108472
H       2.259449    0.334465    1.812243
H       0.539773   -2.941587   -0.472970
