15

O      -0.065270    0.109648   -0.707921
C       0.007336    1.226434   -0.250060
C       1.302331    1.829338    0.306788
C       2.485726    1.007540    0.129610
C       3.469210    0.334829   -0.015075
C      -1.191609    2.120902   -0.184299
C      -2.008706    2.220286   -1.438996
N      -2.511882    1.484453   -0.289674
H       1.436484    2.818432   -0.153759
H       1.127003    2.035172    1.373060
H       4.334423   -0.266760   -0.145526
H      -1.134163    2.980245    0.477726
H      -2.515411    3.155899   -1.656992
H      -1.650599    1.662943   -2.300113
H      -2.343819    0.489021   -0.443460
