19

C      -0.098734    1.440696   -0.002352
C       0.031312   -0.063225    0.054559
C       1.393560   -0.698788   -0.185658
C       0.787013   -0.728833    1.192684
C       0.410763   -2.157947    1.444553
C      -0.252860   -2.575748    2.715309
C       0.710673   -2.927649    0.381661
C       1.383020   -2.132919   -0.677276
O       1.848086   -2.536571   -1.719789
H       0.790374    1.932981    0.404370
H      -0.226986    1.782849   -1.034793
H      -0.965532    1.782708    0.573633
H      -0.827175   -0.615685   -0.319408
H       2.219641   -0.054622   -0.459635
H       1.152950   -0.111521    2.006048
H      -1.179046   -2.009400    2.873399
H      -0.490856   -3.641793    2.719686
H       0.391207   -2.362173    3.577498
H       0.497820   -3.983177    0.269340
