19

C      -0.089808    1.528514   -0.004526
C      -0.096134    0.019074    0.086382
C      -1.212194   -0.681890   -0.654217
O       1.213210   -0.597108   -0.062592
C       0.581370   -0.646235    1.202760
C       1.280862   -0.114102    2.482122
C       0.930171   -1.460648    3.140277
O      -0.492281   -1.605909    3.073289
C       0.281682   -1.961679    1.915667
H       0.761296    1.951211    0.533533
H      -0.026497    1.847633   -1.050655
H      -1.011583    1.943061    0.417452
H      -1.181293   -0.429032   -1.719703
H      -1.128842   -1.766397   -0.558123
H      -2.186897   -0.371972   -0.262871
H       2.351675    0.016873    2.305340
H       0.864842    0.771421    2.967912
H       1.451866   -1.994773    3.925007
H       0.176170   -2.962856    1.515379
