21

C       0.017074    1.320982    0.150114
O      -0.024068   -0.031024   -0.235634
C      -1.243575   -0.658998    0.092234
C      -1.176407   -2.112208   -0.367924
C      -2.478808   -2.853531   -0.144597
C      -2.510109   -4.337688   -0.003289
N      -2.861507   -3.483761    1.124520
C      -1.951386   -3.463280    2.259016
H       0.992723    1.716814   -0.142636
H      -0.769444    1.912769   -0.345267
H      -0.102290    1.440626    1.239036
H      -1.426008   -0.602543    1.179114
H      -2.087771   -0.143101   -0.399002
H      -0.943646   -2.121531   -1.439731
H      -0.340579   -2.609147    0.133058
H      -3.330878   -2.384033   -0.637729
H      -3.316567   -4.927170   -0.432584
H      -1.545224   -4.845002    0.025104
H      -0.886634   -3.576080    2.001923
H      -2.074259   -2.524711    2.809687
H      -2.218656   -4.284416    2.932190
