12

N      -0.203728    1.307092    0.013063
C      -0.023610    0.066758    0.003181
O      -1.151295   -0.737363    0.009653
C      -0.976790   -2.073768   -0.000995
O       0.077443   -2.655276   -0.015264
C      -2.326130   -2.814133    0.008517
O      -3.380268   -2.244992    0.021032
C      -2.222356   -4.360484    0.000780
O      -3.217472   -5.030242    0.006857
H       0.692482    1.792319    0.006134
H       0.904366   -0.504053   -0.011039
H      -1.202520   -4.783267   -0.010166
