17

C      -0.224902   -1.207291    0.032070
C      -0.125314   -0.014026    0.131894
C       0.028319    1.430531    0.238176
C       1.394098    1.907888   -0.284823
N       1.463063    3.364957   -0.179537
C       2.015452    3.923524    1.040119
C       2.779529    4.009014   -0.249120
C       3.984727    3.228453   -0.399481
N       4.951596    2.611515   -0.550216
H      -0.324024   -2.261149   -0.051998
H      -0.762572    1.941381   -0.323160
H      -0.086520    1.740439    1.284857
H       2.201222    1.401579    0.265314
H       1.498881    1.638706   -1.339875
H       1.533665    4.816893    1.426087
H       2.406401    3.239333    1.791412
H       2.795177    4.945575   -0.799392
