25

C       0.412270    1.564826    0.092810
C       0.026343    0.118997    0.353524
O       1.156627   -0.554428    0.885774
C       0.944762   -1.911680    1.123480
C       2.002415   -2.610969    1.914569
C       0.623687   -2.413915    2.518807
C       0.431983   -1.470093    3.695137
C      -1.057780   -1.176859    3.930618
C       1.076446   -2.032595    4.971402
H       1.251658    1.616896   -0.606354
H      -0.432305    2.113484   -0.334711
H       0.710793    2.057404    1.022696
H      -0.821642    0.062499    1.052102
H      -0.291828   -0.370453   -0.581839
H       0.496448   -2.440085    0.280379
H       2.322954   -3.601624    1.611947
H       2.795785   -1.976274    2.296878
H      -0.003376   -3.303665    2.556516
H       0.933598   -0.527692    3.442843
H      -1.596111   -2.093653    4.200405
H      -1.194825   -0.461528    4.748362
H      -1.536177   -0.763790    3.037536
H       2.146840   -2.211615    4.832403
H       0.954557   -1.340910    5.812057
H       0.614090   -2.985441    5.256188
