23

C      -0.661585    1.467647   -0.423741
C       0.036584    0.208493    0.106577
C       0.807470   -0.515726   -1.004206
C       2.135199   -1.250048   -0.998542
C       2.371823   -2.294439    0.122605
C       1.269256   -2.418940    1.135098
C       1.072079   -2.990222   -0.245986
C       0.847750   -1.969478   -1.406054
C       0.417109   -2.472174   -2.754664
H       0.064023    2.177984   -0.835238
H      -1.370937    1.218740   -1.220712
H      -1.216069    1.978368    0.369786
H       0.714052    0.493924    0.919182
H      -0.718641   -0.453512    0.542381
H       0.779276    0.076226   -1.921692
H       2.945768   -0.927807   -1.642676
H       3.343952   -2.744422    0.278562
H       1.457034   -3.182727    1.885966
H       0.719456   -1.572367    1.517345
H       0.904717   -4.049226   -0.399842
H      -0.643013   -2.758011   -2.755483
H       0.554905   -1.706448   -3.525039
H       0.993544   -3.356202   -3.054048
