18

C      -0.123496    1.426680    0.164593
N      -0.045085    0.034688   -0.264619
C      -1.156244   -0.773255   -0.126542
C      -1.302252   -2.121099    0.038224
C      -2.718707   -2.350091    0.010212
O      -3.254874   -3.583840    0.142649
C      -4.668793   -3.626864    0.099902
C      -3.329965   -1.144620   -0.156460
O      -2.353875   -0.161785   -0.241256
H       0.825266    1.915382   -0.068090
H      -0.914137    1.934093   -0.391122
H      -0.330184    1.545890    1.238816
H       0.796796   -0.435533    0.033350
H      -0.530111   -2.861943    0.162049
H      -4.957519   -4.672829    0.213941
H      -5.106992   -3.034552    0.914779
H      -5.046515   -3.244113   -0.858002
H      -4.345759   -0.803161   -0.218781
