22

C       2.386785    0.430453    1.058815
C       1.214022   -0.476532    0.676805
C      -0.128886    0.234582    0.852022
N       1.373253   -0.857389   -0.731436
C       2.268406   -1.934887   -1.073959
C       0.780078   -2.107388   -1.250085
C       0.024469   -3.112427   -0.407679
C       0.258512   -1.918563   -2.640522
O      -0.606406   -2.591808   -3.142375
H       3.343155   -0.087739    0.938480
H       2.400779    1.322090    0.424470
H       2.301356    0.746720    2.102820
H       1.237636   -1.360071    1.336155
H      -0.173957    1.120213    0.210674
H      -0.965338   -0.418300    0.587015
H      -0.262418    0.550668    1.891016
H       2.923054   -1.773756   -1.927973
H       2.706505   -2.528607   -0.271056
H       0.499929   -3.282410    0.559613
H      -1.008042   -2.791424   -0.241345
H      -0.019269   -4.065262   -0.941734
H       0.748140   -1.079725   -3.182859
