19

O      -0.005760    1.367171   -0.420286
C       0.049470    0.062685    0.140635
C      -1.312369   -0.593976    0.161311
C      -1.895394   -1.321018   -1.017514
O      -0.882560   -1.988326   -1.773841
C      -0.589092   -2.850257   -0.638140
C      -1.575721   -2.089473    0.249328
C      -2.454836   -2.723267    1.279641
O      -3.067490   -3.872000    0.706892
H      -0.283029    1.267725   -1.337199
H       0.768976   -0.567519   -0.397009
H       0.421048    0.195012    1.162244
H      -2.062219   -0.018110    0.701937
H      -2.830002   -1.086229   -1.514324
H      -0.927685   -3.870696   -0.838591
H       0.473601   -2.847446   -0.370983
H      -1.854838   -2.998765    2.163089
H      -3.206920   -1.992473    1.617073
H      -3.508827   -4.358629    1.409311
