18

N       0.330956    1.469274    0.175640
C       0.001134    0.093601    0.188591
C      -1.139453   -0.620693    0.453222
C      -0.857864   -2.009546    0.234156
C      -1.773315   -3.178206    0.418784
O      -1.627756   -4.167862   -0.613794
C       0.468207   -2.091111   -0.153784
N       1.266150   -3.216426   -0.408340
N       0.977328   -0.821329   -0.180753
H      -0.438761    2.024833   -0.178929
H       0.550642    1.820000    1.103877
H      -2.083874   -0.205110    0.774038
H      -1.566492   -3.729570    1.344754
H      -2.815696   -2.831450    0.482188
H      -1.731161   -3.700394   -1.450424
H       0.660430   -4.023175   -0.525261
H       1.831432   -3.115468   -1.245297
H       1.909362   -0.557618   -0.452046
