27

C      -0.106826    1.618617    0.147899
C      -0.005291    0.096975    0.003959
C       0.775162   -0.555351    1.151771
C       0.832683   -2.095148    1.124927
C       1.578170   -2.620998   -0.110721
C       1.451267   -2.619300    2.436046
C       1.390556   -4.139063    2.622889
C       1.902943   -4.582047    3.987236
O       1.824405   -5.999019    4.048158
H       0.886275    2.081688    0.162719
H      -0.667974    2.062710   -0.680390
H      -0.612508    1.896151    1.079602
H      -1.014674   -0.334365   -0.037546
H       0.466842   -0.140835   -0.956355
H       1.801001   -0.158001    1.164143
H       0.321135   -0.240465    2.101594
H      -0.203247   -2.464752    1.078262
H       1.587340   -3.713878   -0.143270
H       1.115308   -2.274635   -1.038893
H       2.620652   -2.278566   -0.110390
H       2.496998   -2.283644    2.496005
H       0.932985   -2.139750    3.277930
H       0.357919   -4.492664    2.509239
H       1.982897   -4.653765    1.858763
H       2.940667   -4.235030    4.124696
H       1.298058   -4.115471    4.782431
H       2.148062   -6.281033    4.908476
