22

C      -0.033067    1.601768    0.019814
C       0.003045    0.071502   -0.012089
C      -1.396639   -0.550070    0.011279
C      -1.405350   -2.096176   -0.009806
C      -2.831252   -2.666209    0.140391
C      -2.885010   -4.187901    0.213078
O      -4.239918   -4.548187    0.426854
C      -0.767848   -2.600218   -1.233187
N      -0.275160   -2.992100   -2.203188
H       0.977327    2.020902    0.006522
H      -0.571054    2.002800   -0.846039
H      -0.535136    1.970083    0.921430
H       0.536003   -0.266246   -0.908622
H       0.578366   -0.300881    0.845933
H      -1.927775   -0.233322    0.917093
H      -1.982991   -0.182466   -0.839736
H      -0.796015   -2.453945    0.832038
H      -3.268338   -2.256630    1.057292
H      -3.455706   -2.327091   -0.692966
H      -2.494469   -4.621389   -0.719303
H      -2.241727   -4.543858    1.035560
H      -4.308487   -5.505914    0.377136
