19

C       0.213850    1.551471   -0.066064
C      -0.030523    0.047992    0.008696
O       0.536102   -0.508300   -1.178674
C       0.610987   -1.904212   -1.220316
C       1.986212   -2.520634   -1.077600
C       0.981857   -2.638700    0.040002
O       0.494383   -3.941650    0.232491
C       1.065176   -1.798963    1.261756
C       0.557577   -0.568063    1.261802
H       1.287002    1.762328   -0.046493
H      -0.200987    1.952905   -0.993999
H      -0.260015    2.059814    0.779069
H      -1.121648   -0.130915    0.008806
H      -0.095800   -2.379769   -1.898137
H       2.193226   -3.428368   -1.633559
H       2.815983   -1.836177   -0.947590
H      -0.390898   -3.868970    0.608049
H       1.504213   -2.245633    2.149993
H       0.555896    0.044800    2.159203
