17

O      -0.682775    0.733635   -0.619378
C       0.314727    0.850081    0.047107
C       1.271406    2.011494   -0.051877
C       0.882393    3.203801   -0.963335
C       0.935994    4.168346    0.250215
C      -0.408593    4.345514    1.009678
C      -0.020554    3.156045    1.909434
O      -0.542166    2.609295    2.836674
C       1.331284    2.970473    1.199804
H       0.589880    0.086360    0.808308
H       2.268911    1.607233   -0.255612
H       1.622799    3.418047   -1.735991
H      -0.096205    3.095637   -1.436073
H       1.559664    5.055662    0.158618
H      -0.476424    5.273963    1.586977
H      -1.331927    4.228390    0.434921
H       2.221632    2.916751    1.826817
