16

O      -0.889452    1.088545   -0.044165
C       0.251663    0.738800    0.100891
C       1.439490    1.689256    0.029168
C       1.189095    2.953931    0.860014
N       2.211891    3.977258    0.853036
C       3.455381    3.781649    0.877825
O       4.209249    2.642678    0.831368
C       3.782142    1.517328    0.077152
O       2.573958    0.962362    0.472211
H       0.536802   -0.316587    0.301919
H       1.573720    1.976935   -1.028572
H       0.249906    3.391221    0.509357
H       1.024622    2.651446    1.903747
H       4.122553    4.633921    1.006212
H       3.739573    1.810290   -0.984497
H       4.554447    0.764705    0.240097
