22

C       0.062850    1.539722   -0.029540
C       0.011454    0.006754   -0.003497
C      -1.467104   -0.449571    0.082030
C       0.689780   -0.575003   -1.269965
C       0.996510   -2.069841   -1.170951
N       1.845740   -2.296036   -0.005451
C       1.158928   -1.980927    1.244594
C       0.710503   -0.518576    1.263526
O       0.851810    0.161830    2.252639
H       1.096013    1.898290   -0.062083
H      -0.459548    1.920141   -0.913821
H      -0.404530    1.961496    0.862617
H      -2.019262   -0.065400   -0.782450
H      -1.574266   -1.537568    0.089000
H      -1.939553   -0.058158    0.987965
H       0.052058   -0.376443   -2.139813
H       1.637138   -0.049335   -1.434936
H       0.057122   -2.654303   -1.137467
H       1.539907   -2.393083   -2.064798
H       2.174411   -3.254733    0.017146
H       0.256298   -2.603169    1.417573
H       1.829573   -2.130780    2.093682
