19

O      -0.037735    1.382657   -0.023273
C       0.010813   -0.024088    0.000381
C      -1.413460   -0.637204   -0.119392
C      -1.275368   -0.454627   -1.663636
C       0.253511   -0.625179   -1.415294
O       1.195302    0.090614   -2.181007
C       0.553479   -2.099796   -1.251437
C      -0.234198   -2.815457   -0.448450
C      -1.382701   -2.128421    0.258766
H       0.656527    1.662009   -0.634507
H       0.657962   -0.394559    0.806467
H      -2.212240   -0.089886    0.383047
H      -1.761994   -1.177963   -2.322021
H      -1.518055    0.568543   -1.953492
H       0.939020    0.045462   -3.107378
H       1.410312   -2.510412   -1.776211
H      -0.074763   -3.876952   -0.282984
H      -1.276795   -2.240958    1.346912
H      -2.336303   -2.609918    0.000413
