23

C       0.155677    1.560087    0.021269
C      -0.027184    0.039492   -0.034426
C      -1.487748   -0.476069    0.035695
C      -2.209539    0.040650    1.293919
C      -2.269739   -0.055242   -1.221521
C      -1.412675   -2.039995    0.075539
N      -0.712381   -2.535054    1.265950
C      -2.752037   -2.656164   -0.061914
N      -3.787524   -3.169219   -0.116712
H       1.217666    1.810354   -0.064605
H      -0.365609    2.073991   -0.792304
H      -0.200595    1.981096    0.966239
H       0.419406   -0.335479   -0.965753
H       0.535970   -0.423202    0.781085
H      -2.370858    1.119942    1.232263
H      -3.192646   -0.429364    1.404610
H      -1.628012   -0.151969    2.201371
H      -1.792859   -0.435585   -2.132195
H      -3.297902   -0.427458   -1.199208
H      -2.316175    1.033949   -1.300514
H      -0.828095   -2.355654   -0.797075
H      -1.306137   -2.434845    2.083582
H      -0.528236   -3.528693    1.168449
