19

O       0.539990    1.262409   -0.368498
C       0.189873   -0.055427   -0.082922
C       0.154214   -0.436935    1.478307
C      -1.365768   -0.208072    1.379906
C      -2.833144   -0.699534    1.440277
C      -2.831015    0.029649    0.008705
C      -2.611868    1.465577    0.454386
O      -1.540483    1.253315    1.403906
C      -1.346157   -0.511164   -0.094553
H       0.042460    1.800249    0.263505
H       0.827704   -0.692079   -0.700732
H       0.419147   -1.483330    1.642242
H       0.722286    0.205511    2.155335
H      -2.936472   -1.781215    1.354233
H      -3.498452   -0.297569    2.209826
H      -3.594995   -0.168014   -0.742969
H      -2.278695    2.130826   -0.348905
H      -3.478660    1.908958    0.957381
H      -1.367419   -1.587230   -0.281661
