17

C      -0.034431    1.435772    0.003712
C       0.043291   -0.059128   -0.050453
O      -1.232523   -0.758758   -0.146930
C      -0.461812   -1.844990   -0.691793
C       0.600664   -2.241811    0.385671
C       1.777027   -1.667964   -0.451911
O       2.217016   -0.797628    0.612050
C       0.831234   -0.838884    1.041755
C       0.652597   -0.910917   -1.229450
H       0.974143    1.850511    0.092046
H      -0.505877    1.841958   -0.895241
H      -0.619714    1.754951    0.872983
H      -1.032421   -2.591581   -1.240033
H       0.616365   -3.154427    0.974887
H       2.567706   -2.214508   -0.961845
H       0.675179   -0.596347    2.091830
H       0.722343   -0.502199   -2.234125
