16

O       0.887491   -0.287313   -0.156198
C       0.735675    0.863503   -0.466141
C       1.688161    1.984233   -0.069589
N       1.787705    3.012264   -1.079346
C       1.238197    4.248559   -0.914437
O       0.625310    4.609980    0.072616
C       1.473510    5.181617   -2.077513
C       2.842004    5.574806   -2.454640
O       2.105008    4.635829   -3.239512
H      -0.134025    1.205472   -1.072574
H       1.280303    2.468552    0.826989
H       2.663087    1.553922    0.179497
H       2.206524    2.817411   -1.977199
H       0.656062    5.875067   -2.258913
H       3.006770    6.544064   -2.920257
H       3.685137    5.163628   -1.903141
