18

C      -0.036900    1.499704    0.029226
C       0.011964   -0.003114   -0.011461
C       0.150738   -0.717858   -1.194789
N       0.200413   -2.052602   -1.234545
C       0.097382   -2.693232   -0.073411
N       0.082588   -4.076524   -0.111693
C      -0.048688   -1.987056    1.149043
C      -0.173208   -2.716499    2.458273
N      -0.084573   -0.662760    1.157343
H       0.048991    1.927154   -0.973343
H      -0.976025    1.846780    0.472933
H       0.775085    1.899768    0.645645
H       0.230654   -0.202771   -2.149302
H       0.407131   -4.453131   -0.990965
H       0.442550   -4.558326    0.697203
H       0.733678   -3.291675    2.691169
H      -0.334842   -1.996238    3.261170
H      -1.008499   -3.426933    2.439608
