19

C       0.193825    1.531592   -0.392198
C       0.079931    0.093427   -0.195881
C      -0.007485   -1.093602   -0.012997
C      -0.108296   -2.538927    0.188317
N      -1.483542   -3.032821    0.171799
C      -2.273221   -2.825635   -1.026457
C      -1.931358   -3.726280    1.274779
N      -3.216565   -4.250821    1.164775
O      -1.281457   -3.845042    2.301332
H       0.919141    1.968624    0.302851
H       0.519505    1.775090   -1.409501
H      -0.766628    2.030436   -0.222196
H       0.483055   -3.056003   -0.582539
H       0.299891   -2.823180    1.161195
H      -2.190936   -3.657976   -1.742495
H      -3.325557   -2.678816   -0.771790
H      -1.925729   -1.915571   -1.522047
H      -3.522692   -4.588251    0.265487
H      -3.413901   -4.883738    1.925306
