13

O      -0.057864    1.390607   -0.125321
N       0.084527   -0.003837   -0.093840
C      -1.023821   -0.582375    0.018949
C      -2.543191   -0.434651    0.060257
O      -2.586891   -1.518610   -0.957097
C      -1.574673   -1.994032    0.024405
C      -2.579061   -1.562504    1.149196
C      -2.108685   -1.304398    2.498604
N      -1.737050   -1.101675    3.573822
H       0.857232    1.686782   -0.188393
H      -3.197724    0.423410   -0.060633
H      -1.101123   -2.958424   -0.138100
H      -3.506764   -2.136175    1.122788
