16

O       0.206495    1.324746   -0.176067
C       0.099351   -0.041357   -0.049926
C       0.027060   -0.633536    1.420421
N      -1.382447   -0.114250    1.414414
C      -1.397547   -0.648195   -0.000869
C      -1.049626   -2.132360    0.153950
C      -0.104743   -2.118462    1.102224
C      -2.444314   -0.232769   -0.894576
C      -3.305815    0.124875   -1.653063
H      -0.437751    1.698360    0.443782
H       0.786732   -0.519358   -0.747653
H       0.689365   -0.294390    2.215599
H      -2.003057   -0.645429    2.027973
H      -1.443550   -2.938920   -0.446449
H       0.496316   -2.925772    1.495075
H      -4.067307    0.442095   -2.321756
