22

C       0.340797    1.522043   -0.234692
C       0.045176    0.025358   -0.035536
C      -1.458469   -0.186202    0.163368
C       0.617780   -0.810373   -1.203854
C       2.133476   -0.947160   -0.931941
C       2.313956   -0.745408    0.599185
C       0.873525   -0.566962    1.152014
C       0.805679    0.208926    2.385125
N       0.747177    0.832734    3.357249
H       1.403891    1.717012   -0.405355
H      -0.207769    1.898762   -1.103934
H       0.032316    2.104997    0.638101
H      -2.019467    0.171188   -0.706488
H      -1.696166   -1.246709    0.301944
H      -1.822450    0.359712    1.040117
H       0.144365   -1.799544   -1.201685
H       0.400244   -0.355692   -2.174749
H       2.511105   -1.918549   -1.260597
H       2.700168   -0.191347   -1.482029
H       2.814975   -1.586460    1.083465
H       2.911527    0.143521    0.814085
H       0.457033   -1.557716    1.373948
