14

C       0.943023    1.139461    0.047787
N       0.373417    0.051327   -0.754814
C      -0.402920    0.582351    0.378379
C      -0.594590   -0.364646    1.491500
N      -1.308641   -0.184446    2.590703
C      -1.121598   -1.355308    3.262447
N      -0.347816   -2.241000    2.655879
N      -0.018011   -1.583051    1.519318
H       1.798561    0.861652    0.655768
H       0.981798    2.140584   -0.372434
H       0.007032    0.399852   -1.635411
H      -1.258433    1.222808    0.186088
H      -1.569990   -1.560306    4.223120
H       0.542092   -2.010388    0.799030
