19

C      -0.033586    1.351748   -0.152922
O      -0.029148   -0.046820    0.071300
C      -1.299506   -0.617703    0.067665
O      -1.917649   -0.563234   -1.226983
C      -1.985214   -1.933310   -1.586095
C      -2.459807   -2.775956   -0.366199
C      -1.588293   -3.950729   -0.866845
C      -0.716321   -2.697533   -1.112954
C      -1.187248   -2.121286    0.267625
H       1.002396    1.690244   -0.083473
H      -0.431578    1.595096   -1.144899
H      -0.632807    1.876481    0.606840
H      -1.955393   -0.092919    0.780535
H      -2.405310   -2.059224   -2.583149
H      -3.462116   -2.807818    0.062925
H      -1.229943   -4.647120   -0.105097
H      -1.945175   -4.488907   -1.750041
H       0.287793   -2.635546   -1.530151
H      -0.767076   -2.495084    1.200242
