17

O       0.439819    1.093894    0.731330
C      -0.012337   -0.121480    0.191989
C      -1.502651   -0.057280   -0.242960
N      -1.044369   -0.340486   -1.605717
C      -1.741727   -0.589772   -2.834103
C      -2.348750    0.673187   -3.437935
O      -3.392267    0.700744   -4.033361
C       0.296363   -0.391043   -1.303113
N       1.279478   -0.593228   -2.077247
H       1.401900    1.072256    0.765133
H       0.221962   -0.977547    0.839209
H      -2.157914   -0.825356    0.183171
H      -1.945429    0.933895   -0.101933
H      -0.998940   -0.974586   -3.546268
H      -2.530969   -1.342794   -2.720594
H      -1.728942    1.585543   -3.282850
H       2.161328   -0.599599   -1.568973
