18

C       0.093622    1.179376   -1.109062
C      -0.069447    0.060554   -0.105089
C       1.091527   -0.746707    0.303286
O       0.593572    0.292025    1.158422
C      -1.462281   -0.493345    0.012110
C      -1.893939   -1.257239    1.253147
C      -2.412420    0.133445    1.011462
O      -2.025443    1.212325    1.804473
H       1.123013    1.545626   -1.122058
H      -0.169113    0.836086   -2.115263
H      -0.570777    2.009139   -0.848778
H       0.937123   -1.760621    0.667272
H       2.070620   -0.547134   -0.128911
H      -1.884656   -0.808406   -0.938581
H      -2.559832   -2.105319    1.135729
H      -1.155707   -1.364277    2.041927
H      -3.450921    0.247802    0.718257
H      -1.104550    1.073951    2.060027
