20

C       0.380923    1.689066    0.013725
C       0.186693    0.182229    0.039508
C       0.672844   -0.721825   -1.136681
C       2.002685   -0.326927   -1.838393
C       2.811161   -1.202057   -0.829650
C       1.494020   -1.553112   -0.089225
N       1.085481   -0.581776    0.926984
C       1.171247   -0.579855    2.275002
O       0.604836    0.211150    3.004585
H       1.418850    1.961985   -0.195624
H      -0.259857    2.140895   -0.750890
H       0.112686    2.105836    0.987236
H      -0.860103   -0.038372    0.288026
H      -0.107559   -1.156982   -1.758393
H       2.063655   -0.685028   -2.868253
H       2.237095    0.739355   -1.841879
H       3.280583   -2.072267   -1.295882
H       3.555603   -0.687050   -0.218678
H       1.300123   -2.597482    0.166844
H       1.832053   -1.389974    2.649644
