25

C       0.031567    1.527997    0.092894
C       0.018374    0.012393   -0.054752
C       0.777831   -0.477164   -1.292001
C       0.851876   -2.008330   -1.305736
C       1.425322   -2.517797    0.022927
C       0.685533   -1.939480    1.248939
C      -0.713310   -2.558550    1.422512
C       1.506742   -2.167404    2.519718
O       0.598796   -0.509629    1.137316
H       1.060275    1.893046    0.174789
H      -0.439441    2.003927   -0.772780
H      -0.509542    1.828359    0.994225
H      -1.029477   -0.323472   -0.135268
H       0.289491   -0.100015   -2.198077
H       1.791676   -0.055757   -1.267972
H      -0.150771   -2.422806   -1.471699
H       1.469978   -2.358369   -2.139674
H       1.401369   -3.612838    0.063260
H       2.478842   -2.218876    0.091346
H      -0.630554   -3.624010    1.659502
H      -1.237263   -2.062866    2.245002
H      -1.331038   -2.469325    0.525498
H       2.476011   -1.668158    2.436136
H       0.985948   -1.757195    3.389891
H       1.675679   -3.235691    2.687087
