21

C      -0.008117    1.565906    0.059252
C       0.001742    0.038100    0.035462
O       0.752544   -0.492160    1.127774
C      -1.414315   -0.551194   -0.014001
C      -1.423129   -2.075690   -0.105060
N      -2.793629   -2.583702   -0.170907
C      -2.843894   -4.039573   -0.216205
C      -4.227995   -4.521631   -0.223998
N      -5.317989   -4.903133   -0.205952
H       1.014023    1.950263    0.110089
H      -0.490911    1.974690   -0.833964
H      -0.558339    1.937393    0.933272
H       0.551076   -0.299490   -0.852969
H       0.379524   -0.131288    1.940164
H      -1.960172   -0.232159    0.887608
H      -1.958300   -0.135154   -0.869693
H      -0.907532   -2.389320   -1.023168
H      -0.846378   -2.495275    0.736189
H      -3.319872   -2.257188    0.634093
H      -2.355059   -4.380748   -1.137637
H      -2.314997   -4.538863    0.617243
