27

C      -0.021226    1.659227    0.094759
C      -0.007079    0.118876    0.093622
C       0.844262   -0.368852    1.260210
C       1.711779   -1.599637    1.167801
C       2.347275   -0.233622    1.201170
C      -1.435920   -0.524221    0.032278
C      -2.158917   -0.062101   -1.250034
C      -1.322090   -2.060576   -0.023604
C      -2.298506   -0.139638    1.250728
H       1.003480    2.040727    0.063552
H      -0.554886    2.073172   -0.764215
H      -0.486016    2.056377    1.003291
H       0.504628   -0.200445   -0.827163
H       0.412272   -0.177625    2.239604
H       1.804349   -2.237049    2.040872
H       1.728403   -2.138543    0.226534
H       2.784749    0.138746    0.279749
H       2.878859    0.071090    2.095963
H      -1.556702   -0.270021   -2.142030
H      -3.110347   -0.593321   -1.362603
H      -2.384302    1.007812   -1.238245
H      -0.875172   -2.470740    0.884887
H      -2.314256   -2.510214   -0.141736
H      -0.710901   -2.383937   -0.873915
H      -2.457650    0.940910    1.316700
H      -3.285309   -0.609815    1.177476
H      -1.849524   -0.473506    2.191431
