16

C      -0.615516    1.134021    0.268065
C       0.156380   -0.133545    0.000335
O       0.922594   -0.629497    0.783112
C      -0.000749   -0.804683   -1.416425
N       0.126674   -2.235020   -1.341509
C       1.314853   -2.698763   -1.330980
N       1.572801   -4.033739   -1.249683
C      -1.264452   -0.435785   -2.069981
N      -2.253381   -0.114349   -2.573326
H      -0.488427    1.847858   -0.552787
H      -1.686475    0.909379    0.316875
H      -0.283843    1.574003    1.208777
H       0.805900   -0.322420   -2.003658
H       2.216790   -2.082966   -1.435342
H       0.805227   -4.625291   -0.968673
H       2.490076   -4.326427   -0.959533
