15

O      -0.012075    1.661594    0.013556
C       0.108331    0.250235    0.004298
C      -1.329134   -0.359724    0.012506
C      -2.061003    0.173648    1.267964
O      -2.531380   -0.523651    2.121926
C      -2.081196    0.187367   -1.225035
O      -2.564484   -0.500564   -2.079385
C      -1.238484   -1.808601    0.003805
C      -1.121989   -3.002763   -0.003682
H       0.869210    2.046301    0.009358
H       0.629821   -0.113785   -0.891381
H       0.644391   -0.124118    0.887031
H      -2.102203    1.278772    1.316305
H      -2.123860    1.292921   -1.260145
H      -1.041011   -4.061874   -0.010079
