16

N       0.078192   -1.159315    0.142316
C       0.035635   -0.004457    0.084502
C      -0.020628    1.433701    0.002978
C      -1.119823    2.180853    0.823945
C      -1.270256    3.195183   -0.331554
O      -0.195123    4.159254   -0.345224
C       0.683173    3.232349   -1.019751
C       1.324385    2.227388   -0.037126
C      -0.488956    2.247509   -1.282509
H      -2.014988    1.559511    0.916126
H      -0.835571    2.572386    1.802991
H      -2.241023    3.655038   -0.518546
H       1.306278    3.722532   -1.768271
H       1.703250    2.620765    0.908572
H       2.100156    1.637798   -0.533550
H      -0.813499    1.821492   -2.226702
