17

C      -0.060502    1.536919   -0.087443
C       0.040468    0.033926    0.046866
C       1.363632   -0.696273   -0.162696
O       2.542564    0.034197   -0.352345
C       0.730791   -0.644451    1.205580
C       1.380152    0.130396    2.327513
O       0.059645   -1.811706    1.617713
H       0.891662    2.027587    0.128688
H      -0.351431    1.814983   -1.106837
H      -0.814396    1.948520    0.591735
H      -0.826820   -0.518332   -0.304651
H       1.324594   -1.657877   -0.674603
H       2.520483    0.412958   -1.237731
H       1.952460    0.979642    1.952210
H       0.626040    0.486895    3.036147
H       2.078182   -0.515570    2.874593
H       0.718590   -2.413096    1.984086
