18

C       0.049221   -1.193954   -0.023944
C      -0.014055    0.009999   -0.025866
C      -0.030579    1.423525   -0.014610
C      -1.080431    2.217803   -0.286530
C      -0.741220    3.650235   -0.138459
C      -1.542661    4.728625   -0.773240
N      -1.599193    4.540186    0.684439
C       0.777292    3.704291    0.062420
C       1.200239    2.242462    0.357108
H       0.089647   -2.254873   -0.024087
H      -2.072862    1.869936   -0.550687
H      -1.045065    5.640649   -1.094801
H      -2.401890    4.447487   -1.378048
H      -2.456854    4.054942    0.941040
H       1.261190    4.059660   -0.852665
H       1.037139    4.395430    0.866501
H       1.452136    2.081166    1.412146
H       2.076794    1.934479   -0.221152
