12

N       0.057579    1.338048    0.062587
C      -0.013952   -0.022735    0.076591
N      -1.147274   -0.686676    0.173309
O      -0.693400   -2.043300    0.230534
C       0.629985   -1.977652    0.133055
O       1.345741   -3.105984    0.169963
C       0.732919   -4.321157   -0.118398
O       1.338605   -5.331879   -0.004077
N       1.132176   -0.791970    0.037111
H       0.890643    1.716667   -0.359235
H      -0.797560    1.823623   -0.159163
H      -0.305718   -4.203182   -0.452131
