14

N       0.058776    1.380720    0.238415
C      -0.027605    0.003818    0.077531
N      -1.102317   -0.720777    0.112581
C      -0.671129   -2.049072    0.012918
C      -1.521790   -3.214341    0.007467
O      -2.728417   -3.248107    0.103883
C       0.708066   -2.066697   -0.097159
O       1.641186   -3.023622   -0.227994
N       1.120299   -0.764103   -0.058243
H       0.581898    1.848989   -0.492725
H      -0.873099    1.772408    0.302247
H      -0.941096   -4.171217   -0.101813
H       1.205948   -3.883977   -0.239635
H       2.078009   -0.455456   -0.016174
