16

C      -0.147085    1.448331   -0.044144
C       0.110160   -0.025006    0.104484
O       0.478037   -0.594271    1.092896
O      -0.142959   -0.660817   -1.094695
C       0.033234   -2.017341   -1.149343
N      -0.190394   -2.603999   -2.236701
C      -0.007608   -4.039055   -2.268121
C      -1.246282   -4.722589   -2.837566
O      -1.542477   -5.864073   -2.606158
H       0.058063    1.949896    0.900375
H       0.486332    1.857811   -0.836136
H      -1.185990    1.614769   -0.342943
H       0.363058   -2.459804   -0.207222
H       0.810971   -4.271424   -2.966975
H       0.243635   -4.501309   -1.302204
H      -1.849582   -4.073606   -3.508687
