16

N      -0.031391    1.317892   -0.382069
C      -0.073700   -0.067930   -0.158383
C      -1.109436   -0.976847   -0.032933
C      -2.591146   -0.725267   -0.149285
C      -2.942293    0.335892   -1.097362
N      -3.200351    1.195888   -1.825947
C      -0.519228   -2.245277    0.267122
C       0.838648   -2.078674    0.305896
N       1.098028   -0.749239    0.048377
H       0.460149    1.552267   -1.239977
H      -0.961913    1.710358   -0.455857
H      -3.094700   -1.643022   -0.474640
H      -3.045978   -0.461440    0.816619
H      -1.050427   -3.173267    0.417430
H       1.638931   -2.777729    0.482353
H       1.999421   -0.306243    0.089982
