17

C       0.259809    1.504829   -0.473200
N       0.051609    0.109719   -0.101151
C       1.228899   -0.735601   -0.003838
C       0.486852   -0.352818    1.234059
C       1.084864    0.549249    2.244898
N       2.234417    1.164096    2.058288
O       2.449591    1.929779    3.199149
C       1.427219    1.743884    4.045373
C       0.523508    0.885262    3.514574
H       1.194525    1.938633   -0.092584
H       0.265844    1.564510   -1.565867
H      -0.579709    2.102967   -0.104685
H       1.129289   -1.744078   -0.397303
H       2.205488   -0.275980   -0.142792
H      -0.205030   -1.070373    1.668638
H       1.484055    2.285116    4.977148
H      -0.401589    0.538177    3.943503
