19

C       0.086617    1.448352    0.256105
C      -0.049482   -0.025086   -0.164327
C      -1.462259   -0.499822   -0.178213
N      -2.162371   -0.896555   -1.198144
C      -3.407587   -1.216096   -0.671231
N      -4.423525   -1.636082   -1.504991
C      -5.573446   -2.284661   -0.907379
C      -3.391307   -0.998567    0.672524
O      -2.131519   -0.524122    0.991984
H       1.138572    1.747770    0.263781
H      -0.450293    2.102880   -0.436748
H      -0.321688    1.606869    1.257847
H       0.349549   -0.178540   -1.169714
H       0.533073   -0.654413    0.519688
H      -4.067956   -2.071770   -2.343437
H      -6.260437   -2.600415   -1.695380
H      -5.312345   -3.161172   -0.292169
H      -6.107665   -1.573382   -0.266827
H      -4.091932   -1.096616    1.480410
