19

C      -0.112345    1.500580    0.007639
C       0.024015    0.003974    0.060707
O      -1.251285   -0.705625    0.010048
C      -0.943786   -1.432273    1.227571
C       0.469801   -0.821973    1.289373
C       1.593215   -1.454984    0.441437
C       1.063392   -2.118631   -0.816602
C       1.175805   -0.629024   -0.776995
O       1.982214    0.098686   -1.635488
H       0.866025    1.979344    0.105294
H      -0.538239    1.805701   -0.954598
H      -0.772027    1.858292    0.802979
H      -1.602556   -1.122357    2.047885
H      -1.019569   -2.518110    1.098026
H       0.789996   -0.345431    2.215139
H       2.586190   -1.683811    0.807685
H       1.840595   -2.597397   -1.404721
H       0.095939   -2.607430   -0.852680
H       1.680314   -0.053332   -2.537868
