18

C      -0.196219    1.543804    0.015496
C       0.010618    0.050254    0.022915
C      -1.225606   -0.872999    0.169556
N      -0.485520   -1.753492    1.116434
C       0.656295   -0.799563    1.190017
C       1.768146   -1.198733    0.192342
N       1.082165   -0.434178   -0.886505
C       0.990229   -0.279612    2.494502
N       1.239953    0.139382    3.544001
H       0.761210    2.065573    0.089417
H      -0.671919    1.848923   -0.924323
H      -0.838896    1.862785    0.841887
H      -2.083890   -0.354745    0.614778
H      -1.559815   -1.386172   -0.739651
H      -0.952958   -1.891139    2.004751
H       2.757783   -0.787045    0.415886
H       1.837237   -2.280741    0.052972
H       0.745236   -1.007027   -1.652899
