18

C      -0.114375    1.604391    0.088276
C      -0.033468    0.068796   -0.009802
C      -1.379142   -0.510816    0.051731
N      -2.439153   -0.966640    0.112878
C       0.691955   -0.440927   -1.293672
O       0.081409    0.053046   -2.464631
C       2.206084   -0.138837   -1.240093
C       2.928582   -0.678240   -2.383983
C       3.520986   -1.126179   -3.327956
H       0.884579    2.045834    0.134460
H      -0.646269    2.013684   -0.774079
H      -0.655231    1.902190    0.988993
H       0.516903   -0.317861    0.857886
H       0.564253   -1.527122   -1.337248
H       0.424492    0.932944   -2.652167
H       2.364137    0.947311   -1.186613
H       2.619256   -0.551181   -0.310677
H       4.042891   -1.523826   -4.162956
