17

C      -0.066792    1.549459    0.097776
C       0.064787    0.047293   -0.032528
C       0.683876   -0.650770   -1.211040
C       1.606390    0.164371   -2.099479
O       2.639166    0.692014   -1.247790
C       2.626156    0.080414   -0.016537
N       3.548533    0.185366    0.840272
C       1.376638   -0.708083    0.136512
H       0.794228    2.079825   -0.315233
H      -0.963627    1.903158   -0.422675
H      -0.157984    1.835571    1.150382
H      -0.773130   -0.499284    0.393389
H       0.200593   -1.518612   -1.643272
H       2.070353   -0.464210   -2.868703
H       1.117059    1.011465   -2.591596
H       4.314960    0.749629    0.469551
H       1.414613   -1.586789    0.765237
