20

C       0.083048    1.532088    0.051983
C       0.035024    0.078922   -0.010699
C      -0.025746   -1.120905   -0.060006
C      -0.060024   -2.573236   -0.124252
C      -1.486722   -3.149567    0.014271
O      -2.450983   -2.424219    0.160247
N      -1.598090   -4.518904   -0.037098
C      -2.916992   -5.117847    0.087889
C      -0.510114   -5.460550   -0.207572
H       0.702227    1.876745    0.887733
H       0.500028    1.959126   -0.866938
H      -0.919780    1.951874    0.187258
H       0.373506   -2.916243   -1.073055
H       0.575171   -2.997860    0.664451
H      -3.160692   -5.705130   -0.806787
H      -2.956092   -5.787740    0.956481
H      -3.646154   -4.319329    0.209912
H       0.450092   -4.957742   -0.295564
H      -0.455901   -6.148871    0.646883
H      -0.660164   -6.066500   -1.111522
