14

N      -0.056229    1.129342    0.871978
C      -0.014542    0.112392    0.096463
C       1.238716   -0.484694   -0.365350
C       1.538753   -1.522298   -1.157959
O       0.758161   -2.403161   -1.825411
C      -0.589993   -2.406009   -1.820366
C      -1.481765   -1.612471   -1.210720
C      -1.372685   -0.445830   -0.321912
O      -2.387995    0.078150    0.082931
H       0.890363    1.441726    1.105153
H       2.125153    0.018784    0.013834
H       2.575540   -1.770825   -1.352875
H      -0.931519   -3.225513   -2.443233
H      -2.517935   -1.871889   -1.402939
