18

C      -0.076212    1.595509    0.205171
C       1.436601    1.298749    0.012274
C       1.701880    0.457149    1.278830
C       0.670673   -0.395617    1.299173
C      -0.085169    0.015123    0.034257
C      -1.145443   -0.638112   -0.784137
C      -0.843064   -0.461361   -2.073908
C       0.456330    0.314666   -2.249182
N       1.088141    0.145611   -0.925081
H      -0.403710    2.017245    1.157961
H      -0.546550    2.118504   -0.631799
H       2.173212    2.038960   -0.299033
H       2.538691    0.558181    1.954330
H       0.424999   -1.189433    1.988703
H      -2.031369   -1.120953   -0.392131
H      -1.441537   -0.791481   -2.915376
H       1.097984   -0.102971   -3.034384
H       0.238527    1.357755   -2.539526
