20

C      -0.148886    1.586532   -0.161441
C       0.057589    0.077772   -0.162232
C       1.300171   -0.543504   -0.898402
C       1.678518   -1.287632    0.388810
C       1.942630   -0.287662    1.492977
C       0.526945   -0.624279    1.119273
O      -0.358679   -1.220968    2.015983
C      -0.687184   -0.509253    3.119966
N      -1.553147   -0.958647    3.919080
H       0.742680    2.116642    0.190123
H      -0.373576    1.950841   -1.169630
H      -0.986317    1.870451    0.485671
H      -0.849974   -0.423761   -0.512057
H       1.020256   -1.197129   -1.726507
H       2.046160    0.175689   -1.252665
H       2.028448   -2.309368    0.458752
H       2.270194   -0.729364    2.428790
H       2.380484    0.683906    1.275569
H      -0.126008    0.429037    3.210744
H      -1.671741   -0.313324    4.697462
