24

C       2.302765   -2.280416    1.167245
N       1.590964   -1.327752    0.326558
C       0.136096   -1.282207    0.447838
C       0.968054   -0.136073    0.912114
C       1.083509    0.335164    2.352819
C       2.485813    0.908035    2.601466
C      -0.024607    1.365786    2.757537
C      -0.148661    0.664925    4.135753
C       0.604869   -0.556593    3.548005
H       1.877816   -2.425458    2.171042
H       2.307199   -3.251565    0.660849
H       3.343695   -1.959707    1.278660
H      -0.421450   -1.223549   -0.484413
H      -0.327210   -1.913178    1.204716
H       1.031393    0.715819    0.230838
H       2.723144    1.685545    1.866682
H       2.560171    1.357029    3.597506
H       3.253547    0.131657    2.527144
H       0.260786    2.421509    2.747651
H      -0.927363    1.242310    2.152367
H       0.421353    1.173572    4.917229
H      -1.158345    0.488145    4.512477
H      -0.086591   -1.343979    3.241411
H       1.389991   -1.008389    4.160835
