17

C       1.129969    1.142886   -0.316033
C       0.039477    0.143403    0.119042
N      -0.384879   -0.685231   -0.999694
C      -0.092336   -1.887050   -1.222612
O       0.742920   -2.747174   -0.566474
C       1.709555   -2.164810    0.277821
O       1.178150   -1.655734    1.472705
C       0.379236   -0.538217    1.444905
N      -0.079714   -0.055731    2.518241
H       2.084282    0.655549   -0.536140
H       0.799537    1.657666   -1.221732
H       1.290636    1.878685    0.475664
H      -0.833840    0.747254    0.380314
H      -0.545609   -2.410924   -2.062805
H       2.376216   -2.975128    0.571630
H       2.260134   -1.395115   -0.273419
H       0.255412   -0.589732    3.322965
