20

C      -0.355528    1.346922    0.136750
C       1.098956    0.971326   -0.031384
C       0.046042   -0.096150    0.029220
C      -0.073579   -1.190438    1.105992
C      -0.499938   -2.196144    0.002665
C      -2.022935   -2.227337   -0.304175
C      -1.829729   -1.166677   -1.431364
C      -0.318233   -1.078745   -1.093678
H      -0.680748    1.716280    1.104504
H      -0.865987    1.802405   -0.706583
H       1.569594    1.171793   -0.989170
H       1.760545    1.084899    0.822310
H       0.883070   -1.437920    1.577175
H      -0.812411   -1.019919    1.896839
H       0.027415   -3.150138   -0.025520
H      -2.383161   -3.192821   -0.667957
H      -2.662033   -1.922436    0.529988
H      -2.023143   -1.568050   -2.429648
H      -2.389819   -0.233474   -1.324054
H       0.388771   -1.153574   -1.922746
