19

C      -0.205487    1.256604    0.090226
O       0.388892   -0.015660   -0.042242
C       0.878372   -0.555498    1.161807
C      -0.233019   -1.219384    2.039280
C       0.071694   -2.539157    1.323109
C      -0.414096   -3.906538    1.474480
O      -0.843618   -3.077505    0.381294
C       1.424626   -1.984308    0.830654
O       1.846842   -2.258346   -0.462498
H       0.509406    1.991858    0.489616
H      -0.519925    1.571243   -0.907439
H      -1.085749    1.236429    0.748435
H       1.556350    0.150378    1.660564
H       0.015605   -1.233457    3.104345
H      -1.246381   -0.836552    1.904149
H       0.230441   -4.740083    1.197777
H      -1.181765   -4.134529    2.213164
H       2.234476   -2.259866    1.513978
H       1.173508   -1.892459   -1.049914
