18

C      -0.044531    1.575904    0.007297
C       1.501998    1.447780    0.023282
O       1.385840    0.060837    0.452771
C       0.000877    0.037745    0.009806
C      -0.086971   -0.647457   -1.344086
N      -0.642910    0.101341   -2.481681
C       0.807713   -0.247388   -2.462142
C       1.800048    0.861044   -2.407231
C       2.123200    1.597261   -1.341101
H      -0.441221    1.971846    0.943678
H      -0.502677    2.062354   -0.851139
H       2.041189    2.040299    0.768107
H      -0.641337   -0.468820    0.737757
H      -0.311626   -1.711197   -1.286988
H      -1.141262   -0.524873   -3.109344
H       1.099375   -1.053638   -3.133122
H       2.296879    1.071328   -3.352335
H       2.849922    2.397543   -1.458233
