12

C      -0.149049    1.381204   -0.087028
O       0.181249    0.010592    0.087309
C       0.728333   -0.586212   -1.065501
C       1.253386   -1.907246   -0.726682
C       1.707338   -2.986287   -0.467082
C      -0.278839   -0.689732   -2.156794
N      -1.067468   -0.726200   -2.999723
H       0.734365    1.970557   -0.373208
H      -0.930570    1.517343   -0.845741
H      -0.518396    1.731826    0.877581
H       1.552349    0.034093   -1.461086
H       2.101044   -3.944880   -0.231870
