16

O      -0.074118    1.417034    0.053007
C      -0.001837   -0.000866    0.001036
C      -1.411466   -0.527812    0.021281
C      -2.564035   -0.265024   -0.976278
N      -3.237000   -1.199370    0.047621
C      -1.914429   -1.987131   -0.016808
C      -2.506964   -0.338900    1.096804
H       0.821995    1.765449    0.043504
H       0.506696   -0.346871   -0.914152
H       0.555680   -0.409457    0.860140
H      -2.997757    0.737082   -1.006025
H      -2.488719   -0.700004   -1.977383
H      -1.789251   -2.553124   -0.944722
H      -1.739586   -2.617340    0.860301
H      -2.377609   -0.843811    2.058799
H      -2.936433    0.657705    1.221534
