21

C      -0.042966    1.451311   -0.157963
C       0.097016   -0.037112    0.057294
O       0.279962   -0.579603    1.117583
O      -0.010912   -0.699822   -1.113502
C       0.106273   -2.133082   -1.036411
C      -0.041819   -2.685085   -2.444819
C       0.067961   -4.212156   -2.474941
C      -0.078174   -4.783271   -3.879365
O       0.039120   -6.194332   -3.789296
H       0.047555    1.965950    0.797739
H       0.728556    1.805256   -0.847626
H      -1.012074    1.675428   -0.612707
H       1.076619   -2.390243   -0.598522
H      -0.666906   -2.520198   -0.364260
H      -1.009810   -2.366147   -2.850613
H       0.728538   -2.236571   -3.084180
H       1.035466   -4.533080   -2.070048
H      -0.701875   -4.662580   -1.836609
H      -1.053965   -4.488945   -4.299983
H       0.699301   -4.358243   -4.535566
H      -0.052245   -6.561758   -4.673074
