23

C      -0.026445    1.446548   -0.492774
C      -0.015827    0.082134    0.206732
C      -1.382949   -0.575377    0.204203
C      -1.865981   -1.382596   -0.981964
C      -1.589475   -2.066290    0.334287
C      -0.464534   -3.063117    0.474763
C      -0.735466   -4.506467   -0.018534
C       0.504545   -4.286492   -0.904098
O       0.608800   -2.907721   -0.490474
H       0.963818    1.912441   -0.468761
H      -0.326681    1.347645   -1.541338
H      -0.730396    2.135594   -0.011921
H       0.710373   -0.579027   -0.274042
H       0.321360    0.209968    1.244455
H      -2.150867    0.024195    0.690774
H      -2.891645   -1.274421   -1.317457
H      -1.142285   -1.560373   -1.770610
H      -2.456681   -2.368580    0.919319
H      -0.056459   -3.029892    1.495734
H      -0.666177   -5.296823    0.730092
H      -1.670874   -4.606768   -0.572121
H       1.392325   -4.862859   -0.613798
H       0.360002   -4.378947   -1.986487
