21

C       0.312136    1.271924    0.454021
O       0.036283   -0.089487    0.171617
C      -1.294924   -0.356163   -0.108919
C      -1.378552   -1.813025   -0.576398
O      -2.661660   -2.090977   -1.100776
C      -3.612037   -2.617011   -0.190383
C      -3.833716   -1.776389    1.087087
C      -3.454507   -0.298128    0.945924
O      -2.052774   -0.098350    1.057298
H       1.392659    1.353157    0.589558
H       0.006121    1.919040   -0.381741
H      -0.197548    1.605000    1.363968
H      -1.670961    0.293760   -0.924967
H      -0.656072   -1.954463   -1.386387
H      -1.107227   -2.483263    0.250616
H      -4.538174   -2.668415   -0.771295
H      -3.342343   -3.648002    0.087502
H      -4.888156   -1.856970    1.377634
H      -3.247716   -2.175169    1.921765
H      -3.835065    0.122468    0.003065
H      -3.894654    0.270939    1.770495
