14

C       0.358402    1.386999    0.078573
C       0.230545   -0.118204    0.092646
O       0.147010   -0.768506    1.105161
C       0.208919   -0.823080   -1.259199
N       0.095823   -2.160345   -1.256305
C       0.082328   -2.716987   -2.454336
C       0.180812   -1.933144   -3.608342
N       0.290885   -0.610425   -3.543468
N       0.305003   -0.044716   -2.339295
H       1.276028    1.688966   -0.435313
H      -0.465155    1.836519   -0.484396
H       0.360265    1.749957    1.106560
H      -0.007552   -3.799691   -2.509430
H       0.172048   -2.366277   -4.603446
