19

O      -0.006954    1.434070    0.029015
C       0.049788    0.021320   -0.031503
C      -1.347866   -0.554531   -0.220180
C      -1.714338   -0.373431   -1.725412
C      -0.364124   -0.034949   -2.388202
C       0.633294   -0.582535   -1.338123
C       0.327951   -2.081444   -1.102686
C      -1.161019   -2.025557   -0.687865
O      -1.975316   -1.795783   -1.862096
H       0.894889    1.769035    0.057260
H       0.547817   -0.389950    0.859787
H      -2.110244   -0.337354    0.523706
H      -2.565444    0.234742   -2.035052
H      -0.278660   -0.510660   -3.368157
H      -0.244555    1.045914   -2.498927
H       1.683634   -0.355154   -1.536406
H       0.462111   -2.707668   -1.988330
H       0.950452   -2.485519   -0.295515
H      -1.519713   -2.866996   -0.091502
