23

C      -0.082681    1.563968    0.070224
C      -0.008654    0.026382    0.042053
C       0.741871   -0.480010    1.288085
C      -1.442839   -0.540462    0.068263
C       0.723806   -0.484205   -1.262680
C       2.203882   -0.074323   -1.338745
O       0.747960   -1.920276   -1.283152
C       0.030316    0.001525   -2.468932
C      -0.533061    0.362270   -3.468746
H       0.910286    2.021483    0.107626
H      -0.606369    1.957488   -0.805504
H      -0.625209    1.892542    0.962944
H       0.144172   -0.288132    2.185166
H       0.925064   -1.555352    1.221824
H       1.701900    0.026280    1.423269
H      -2.006588   -0.250715   -0.823583
H      -1.441220   -1.632698    0.140609
H      -1.980031   -0.160310    0.942774
H       2.759104   -0.524000   -0.513397
H       2.626004   -0.443199   -2.275573
H       2.323817    1.009715   -1.306411
H      -0.124693   -2.226692   -1.549218
H      -1.026381    0.684848   -4.352536
