21

C       1.686421    0.893738   -1.003949
N       0.909473   -0.169091   -0.383647
C       1.587187   -1.298019    0.229880
C       0.797159   -0.337445    1.059075
C       1.413953    0.554008    2.163705
C       0.862302    0.045612    3.520366
C       2.957752    0.566915    2.237869
C       0.936776    1.937101    1.970587
N       0.564353    3.022441    1.828704
H       2.693725    1.039441   -0.587348
H       1.799965    0.653879   -2.065788
H       1.141013    1.837096   -0.922776
H       1.192835   -2.286020    0.002444
H       2.672308   -1.256358    0.309937
H      -0.210209   -0.640026    1.342150
H       1.166797   -0.994925    3.667289
H       1.253937    0.644621    4.346196
H      -0.228900    0.095414    3.547005
H       3.420734    0.932598    1.321056
H       3.280963    1.216180    3.056389
H       3.325376   -0.443157    2.436260
