17

C      -0.058325    1.405487    0.086441
N      -0.098192   -0.041878   -0.053676
C       0.595865   -0.608556   -1.107231
C       1.228813   -0.017886   -2.202039
C       1.714672   -1.061317   -3.012315
C       1.387253   -2.269099   -2.415532
N       0.700294   -1.958334   -1.239684
C       1.650915   -3.628044   -2.808490
O       2.232126   -3.973363   -3.820205
H       0.958601    1.806216    0.212805
H      -0.500015    1.869206   -0.800414
H      -0.659596    1.692552    0.951526
H       0.020290   -0.530901    0.822951
H       1.332817    1.041197   -2.372848
H       2.267268   -0.970491   -3.934389
H       0.255748   -2.634418   -0.641199
H       1.265119   -4.389093   -2.084602
