13

C      -0.032181    1.423381   -0.017280
N      -0.007411   -0.036766    0.012417
N      -0.048333   -0.640282   -1.171090
N      -0.030521   -1.920557   -1.240497
C       0.030805   -2.628963   -0.080916
F       0.043968   -3.933278   -0.270965
C       0.075747   -2.104093    1.167223
C       0.057582   -0.672159    1.289939
O       0.090494    0.003269    2.298651
H       0.868085    1.814173    0.461803
H      -0.083685    1.728587   -1.060536
H      -0.898151    1.785637    0.540861
H       0.124007   -2.715929    2.057509
