14

O      -0.097221    1.412635   -0.054351
C      -0.026210    0.008128    0.015691
C       0.192264   -0.678716    1.411069
N      -1.128724   -1.386938    1.330979
C      -2.136739   -0.318507    1.246387
C      -1.396909   -0.665711    0.018382
C       0.878916   -0.520623   -1.013885
N       1.621122   -0.900385   -1.814468
H       0.797573    1.770099   -0.096722
H       1.014264   -1.394834    1.427091
H       0.279275    0.021532    2.247244
H      -3.153859   -0.689825    1.318471
H      -1.953688    0.632451    1.739087
H      -1.842986   -1.157120   -0.838105
