19

C      -0.038610    1.525538   -0.159606
C       1.516306    1.533682    0.075576
C       1.355732    0.187945    0.811343
C       0.806427    0.227991    2.271493
C       0.096747   -1.111612    2.068881
O      -0.812628   -0.768639    0.950829
C       0.004542   -0.019080    0.074785
C       1.257458   -1.959712    1.549659
C       2.050196   -1.150498    0.824085
H      -0.583636    2.062067    0.618557
H      -0.394848    1.857163   -1.136836
H       2.062287    1.433102   -0.866773
H       1.941282    2.367422    0.638686
H       1.609861    0.201653    3.009261
H       0.116458    1.046243    2.486134
H      -0.517110   -1.527095    2.865304
H       0.110666   -0.542828   -0.882042
H       1.344567   -3.031964    1.667619
H       2.912643   -1.430156    0.231452
