18

C       1.108673    1.571546    1.304412
C       0.594941    0.216206    1.081583
C       0.169103   -0.890685    0.861167
C      -0.341747   -2.219180    0.659310
C      -0.745105   -2.707501   -0.674589
O       0.471084   -3.144069   -0.084139
N       1.043645    2.513031    0.180201
C       1.263352    2.006053   -1.169518
C      -0.093035    2.440089   -0.730589
H       0.564141    2.025940    2.141407
H       2.159013    1.509847    1.614992
H      -0.829331   -2.665695    1.525395
H      -1.533343   -3.455839   -0.748208
H      -0.641633   -2.043997   -1.531144
H       1.870143    2.640230   -1.809364
H       1.414178    0.936522   -1.298212
H      -0.827625    1.653420   -0.573209
H      -0.498870    3.398096   -1.042654
