21

C      -0.128530    1.287651    0.210838
O       0.004271   -0.115757    0.053414
C       0.646953   -0.575517   -1.140896
C       0.059480    0.011727   -2.421056
C       2.136666   -0.216443   -0.994126
O       2.726297    0.582583   -1.672582
C       0.543370   -2.118443   -1.054422
C      -0.878717   -2.652409   -1.177814
O       1.440094   -2.717359   -1.983173
H       0.829527    1.813666    0.105532
H      -0.841734    1.717623   -0.503673
H      -0.507982    1.446195    1.222904
H       0.353989    1.055094   -2.545740
H       0.446013   -0.524934   -3.292609
H      -1.030809   -0.059807   -2.418356
H       2.623895   -0.722754   -0.131315
H       0.936700   -2.390516   -0.067932
H      -0.888043   -3.730807   -0.998719
H      -1.530900   -2.165129   -0.449110
H      -1.288407   -2.470930   -2.178345
H       1.041941   -2.676227   -2.859163
