14

N      -0.131850    1.351593   -0.190969
C      -0.094120   -0.025273   -0.020694
C      -1.015262   -0.994542   -0.357986
N      -0.457868   -2.144616    0.120295
C      -0.970178   -3.497879    0.090854
C      -1.227305   -3.977960   -1.271878
N      -1.455300   -4.355342   -2.338814
N       0.718019   -1.904703    0.718527
N       0.943174   -0.623195    0.633003
H       0.779369    1.764406   -0.039423
H      -0.523190    1.652456   -1.072473
H      -1.958237   -0.974134   -0.875835
H      -0.212990   -4.122083    0.572236
H      -1.895731   -3.573509    0.672999
