15

O      -0.063242    1.357912   -0.054706
N       0.041477   -0.031205   -0.080594
C      -1.103966   -0.607784   -0.026964
C      -1.103774   -2.112781    0.031464
O      -2.187081   -2.691171   -0.707426
C      -3.426355   -2.132993   -0.576849
N      -4.482409   -2.768483   -0.891538
C      -3.505740   -0.732250   -0.148916
C      -2.412097    0.019848    0.054209
H       0.858572    1.635897   -0.084969
H      -0.185038   -2.519495   -0.391644
H      -1.180314   -2.438695    1.078941
H      -4.241944   -3.715712   -1.192154
H      -4.510232   -0.333883   -0.077809
H      -2.472477    1.077936    0.274262
