19

C      -0.013829    1.501766    0.076663
C      -0.056071    0.010102   -0.008741
C      -0.065436   -0.758566   -1.104049
C      -0.003136   -2.230023   -0.785095
C       1.447625   -2.776859   -0.471319
C       1.169264   -2.610093    1.043050
O       1.398115   -1.272409    1.539720
C       0.017144   -0.869160    1.221692
C      -0.314127   -2.296291    0.744120
H       0.906188    1.835802    0.572816
H      -0.054706    1.966865   -0.912031
H      -0.849102    1.890999    0.672646
H      -0.038474   -0.380424   -2.121638
H      -0.588014   -2.862578   -1.455536
H       1.555099   -3.831732   -0.743113
H       2.288213   -2.208641   -0.874219
H       1.540512   -3.370926    1.733810
H      -0.468578   -0.465067    2.115914
H      -1.181008   -2.834191    1.121698
