19

C      -0.065200    1.495291    0.046663
C      -0.009101   -0.028949   -0.054359
C       0.775603   -0.578408   -1.258774
C       1.864450   -1.189428   -0.310342
C       1.116761   -0.618675    0.847566
O       1.369595   -0.474524    2.012597
C       0.945732   -2.046884   -1.209058
C      -0.058352   -3.039489   -0.666629
O       1.615671   -2.507546   -2.352779
H       0.921511    1.939821   -0.120466
H      -0.756103    1.912010   -0.692737
H      -0.402974    1.792863    1.042972
H      -1.008604   -0.451605    0.089722
H       0.967744   -0.031766   -2.173369
H       2.937563   -1.273076   -0.431081
H      -0.574031   -2.669920    0.221512
H      -0.802801   -3.277489   -1.433084
H       0.448162   -3.970202   -0.384069
H       2.044343   -3.341827   -2.130837
