23

C      -0.348175    1.481725   -0.157028
C      -0.020102   -0.016291   -0.018089
C       0.953581   -0.187490    1.168531
C      -1.324196   -0.792666    0.253892
C       0.649516   -0.564107   -1.292105
C       0.854568   -2.082141   -1.381397
O       1.739093   -2.429154   -2.423173
C       0.652592    0.165502   -2.569205
O       1.822716    0.152852   -1.728601
H       0.535402    2.051295   -0.458645
H      -1.144617    1.658425   -0.886440
H      -0.691822    1.876289    0.804346
H       0.512642    0.229396    2.079659
H       1.185796   -1.237446    1.368513
H       1.893237    0.337257    0.973248
H      -2.011358   -0.728313   -0.596856
H      -1.139255   -1.850555    0.462460
H      -1.834793   -0.372102    1.126323
H       1.215571   -2.463931   -0.414254
H      -0.101210   -2.573693   -1.589988
H       2.449226   -1.773255   -2.383184
H       0.754759   -0.401113   -3.491394
H       0.167705    1.132524   -2.658232
