16

N      -0.465239    1.412134    0.920950
C      -0.167255    0.261938    0.504675
O      -1.003725   -0.493985   -0.284299
C      -2.328945   -0.137136   -0.395323
O      -3.050186   -0.719043   -1.141763
C       1.115203   -0.496220    0.742585
C       2.104000   -0.578107   -0.448570
C       3.033377    0.247078    0.464827
O       2.040428    0.274280    1.523274
H       0.313967    1.759488    1.483452
H      -2.595904    0.693235    0.269530
H       0.878877   -1.460903    1.209448
H       2.448203   -1.583348   -0.689378
H       1.770614   -0.080675   -1.359454
H       3.949246   -0.256186    0.791244
H       3.279418    1.255851    0.117004
