20

C      -0.168624    1.475609   -0.003947
C       0.024924   -0.036589   -0.019461
C       1.235504   -0.577013   -0.853104
C       2.105980   -0.429556    0.418058
C       0.786089   -0.614394    1.229028
C       0.480983   -2.093084    1.291442
O       0.044723   -2.663773    2.261421
C       0.810907   -2.848000   -0.011728
N       1.099957   -1.995688   -1.182392
H       0.758078    2.011641    0.223797
H      -0.522856    1.827530   -0.979305
H      -0.911572    1.767478    0.745720
H      -0.930758   -0.523158   -0.248667
H       1.522474   -0.026029   -1.753124
H       2.910820   -1.154211    0.562356
H       2.509139    0.577133    0.530143
H       0.659934   -0.139696    2.203152
H       1.680255   -3.479975    0.221587
H      -0.010701   -3.539308   -0.218714
H       0.356394   -2.100791   -1.863467
