19

C      -0.082525    1.568561    0.054704
C       0.030074    0.044934    0.031513
C      -1.338093   -0.591796   -0.220302
C       1.129777   -0.575762   -0.911608
C       1.753253   -1.282666    0.297185
C       2.190483   -0.269186    1.315349
C       0.733657   -0.629131    1.230863
H       0.881435    2.048724    0.247106
H      -0.454606    1.946731   -0.904850
H      -0.780424    1.897860    0.833475
H      -1.749897   -0.271721   -1.184276
H      -1.270696   -1.684846   -0.226966
H      -2.053228   -0.306181    0.560393
H       0.702641   -1.254963   -1.653494
H       1.783300    0.136219   -1.428103
H       2.128639   -2.298717    0.305440
H       2.710372   -0.669656    2.180251
H       2.550848    0.707447    1.000767
H       0.209307   -1.062268    2.076176
