17

C       0.153671    1.530269    0.024269
N      -0.074680    0.091005   -0.004643
C      -0.235649   -0.598856    1.287923
C      -1.661173   -1.098269    1.590653
O      -1.923069   -2.391172    1.111715
C      -0.134405   -0.641473   -1.136304
O      -0.395742   -1.835639   -1.191324
C       0.155809    0.078135   -2.389790
N       0.371629    0.577367   -3.409465
H       0.249761    1.920855   -0.988423
H      -0.685838    2.035435    0.513730
H       1.070754    1.759699    0.577434
H       0.443542   -1.457257    1.318395
H       0.079679    0.115672    2.052123
H      -1.782030   -1.137484    2.679718
H      -2.382984   -0.352625    1.212878
H      -1.563086   -2.446285    0.213956
