16

O      -0.011530    0.342731    1.240238
C       0.036299    1.314012    0.523913
N       1.149180    1.756894   -0.144800
C       2.383727    1.086732   -0.136740
C       2.977089   -0.106539   -0.967396
C       3.827376   -0.495329    0.231630
C       4.369254    0.486226   -0.796837
C       3.781162    1.672718    0.025071
C       3.236998    0.687352    1.053162
H      -0.833246    1.976456    0.334746
H       1.026647    2.538078   -0.772985
H       2.576882   -0.723634   -1.760627
H       4.193685   -1.469265    0.525161
H       5.233562    0.410977   -1.442631
H       4.077475    2.706181    0.148003
H       3.027557    0.823345    2.104224
