22

C      -0.899061    1.506981    0.161500
C      -0.562704    0.026418    0.353159
C       0.719440   -0.187842    1.166470
N       0.988117   -1.617419    1.315934
C       2.179548   -2.397138    1.170553
C       3.446918   -1.933009    1.973825
C       3.267140   -0.676167    2.779830
C       2.631397   -1.952887    3.256550
C       1.372660   -2.416415    2.439520
H      -0.096057    2.034163   -0.366549
H      -1.816594    1.634076   -0.420849
H      -1.045016    2.011496    1.123653
H      -1.387453   -0.488752    0.859515
H      -0.445609   -0.466209   -0.619271
H       1.556436    0.307264    0.657625
H       0.605604    0.284456    2.150640
H       2.242380   -3.135163    0.376789
H       4.419820   -2.375180    1.802224
H       4.151097   -0.394196    3.346200
H       2.697073    0.171292    2.430650
H       2.895026   -2.412474    4.200364
H       0.690661   -3.172183    2.816853
