21

C      -0.064661    1.546459    0.077794
C      -0.004367    0.047661   -0.002153
C       0.023382   -0.628505   -1.153192
C       0.054859   -2.141737   -1.156948
C       1.495332   -2.670699   -0.975863
C       1.682109   -2.522264    0.558974
C       0.244321   -2.213952    1.068807
C       0.002990   -0.714349    1.308496
O      -0.608928   -2.643180    0.005133
H       0.800460    1.952292    0.618210
H      -0.091479    2.003553   -0.915220
H      -0.955485    1.875863    0.628714
H       0.042735   -0.111567   -2.109427
H      -0.456150   -2.552760   -2.031285
H       1.549407   -3.719667   -1.280682
H       2.232273   -2.106544   -1.552147
H       2.065353   -3.444082    1.002069
H       2.379275   -1.720395    0.814149
H      -0.021570   -2.795812    1.954861
H       0.777073   -0.311574    1.976575
H      -0.953763   -0.563754    1.828377
