19

C      -0.052542    1.538281    0.065812
C      -0.001534    0.002578    0.008177
C       0.777872   -0.486924   -1.230938
O       1.248429   -1.824837   -1.101457
C       2.575014   -1.953166   -0.616857
C       2.661862   -1.729777    0.893085
O       2.025451   -0.483977    1.209443
C       0.645388   -0.580477    1.251042
O       0.069283   -1.078508    2.172859
H       0.952240    1.954527    0.186545
H      -0.479850    1.939713   -0.858771
H      -0.671192    1.879908    0.899793
H      -1.020531   -0.394446   -0.013246
H       0.113781   -0.471534   -2.101980
H       1.618371    0.189994   -1.434670
H       2.905020   -2.968180   -0.864789
H       3.235801   -1.240325   -1.132547
H       2.175951   -2.539977    1.448147
H       3.703112   -1.652235    1.218467
