16

O       0.213629    1.353395   -0.136345
C       0.100306   -0.048385   -0.076792
C       0.223315   -0.635209    1.347862
C      -0.117437   -2.121143    1.307616
C      -1.519667   -1.857873    1.801845
N      -1.290033   -0.367637    1.581179
C      -1.348214   -0.570921    0.043481
C      -1.308516   -2.075298    0.329193
O      -1.572694   -3.147508   -0.487509
H      -0.348715    1.717380    0.558805
H       0.733880   -0.460774   -0.865473
H       0.938996   -0.240111    2.069827
H       0.498632   -3.005446    1.401858
H      -2.141265   -2.306546    2.565794
H      -2.177146   -0.125616   -0.509149
H      -2.524418   -3.194108   -0.632227
