19

O      -0.249453    1.391222    0.038035
C      -0.088919   -0.020193    0.074127
C       0.365423   -0.639020    1.412669
C      -0.638413   -0.011716    2.416866
C      -1.658446   -0.879716    1.665030
C      -0.555745   -1.942478    1.376970
C      -1.124520   -2.162143   -0.038623
C      -1.487953   -0.669713    0.082652
O      -2.443596   -0.093921   -0.734993
H       0.607932    1.802301   -0.102819
H       0.510187   -0.352528   -0.783324
H       1.435726   -0.690467    1.617031
H      -0.480823   -0.377919    3.435670
H      -0.743432    1.074720    2.416568
H      -2.657569   -1.128725    2.020201
H      -0.310896   -2.751380    2.062002
H      -0.476455   -2.470323   -0.865663
H      -2.007523   -2.805980    0.002489
H      -2.225069    0.846639   -0.785950
