20

C      -0.028931    1.547970    0.015358
C      -0.026294    0.019423    0.012321
O       0.828197   -0.522667    1.014795
C      -1.431651   -0.550184    0.123503
C      -2.177362   -0.508758    1.478341
O      -2.517968   -1.909155    1.384526
C      -1.811230   -2.054161    0.137792
C      -2.713086   -1.779075   -1.082014
N      -2.273705   -0.350125   -1.081113
H       0.989108    1.930823   -0.095418
H      -0.638601    1.932128   -0.807643
H      -0.440779    1.939065    0.955278
H       0.388455   -0.331883   -0.939273
H       0.666650   -0.048220    1.836821
H      -1.551228   -0.315792    2.360572
H      -3.060700    0.142200    1.521990
H      -1.117606   -2.896128    0.137452
H      -2.435726   -2.292559   -2.009644
H      -3.772557   -1.959105   -0.872296
H      -3.021437    0.327553   -0.972008
