19

O      -0.049454    1.450224   -0.064860
C       0.074687    0.028645    0.020173
C       0.797663   -0.415560    1.297779
C      -0.117566   -0.272616    2.521947
C      -1.530861   -0.737373    2.179066
C      -1.767307   -1.672665    0.952733
O      -3.160960   -1.193966    0.887066
C      -2.331508    0.017330    1.084603
C      -1.352520   -0.508217    0.005066
H       0.836488    1.821941   -0.125324
H       0.620087   -0.351538   -0.857431
H       1.081292   -1.469145    1.176854
H       1.730973    0.146449    1.422036
H       0.280292   -0.853285    3.360999
H      -0.153592    0.771623    2.854069
H      -2.143965   -1.001837    3.043042
H      -1.603215   -2.746235    0.846163
H      -2.840571    0.979125    1.136052
H      -1.797856   -0.565608   -0.989228
