18

C       0.082407    1.476897   -0.331892
C       0.001799    0.003881    0.050797
C      -1.420324   -0.524103    0.139020
O       0.661359   -0.811862   -0.964389
C       1.987965   -0.765974   -1.008215
C       2.882373   -0.526634   -1.998616
N       4.168659   -0.725756   -1.502551
C       3.990683   -1.054527   -0.268633
O       2.689094   -1.111442    0.122320
H       1.121880    1.797613   -0.445323
H      -0.440114    1.656409   -1.276600
H      -0.381204    2.093089    0.444497
H       0.521828   -0.166550    1.000252
H      -1.935748   -0.397014   -0.817941
H      -1.421355   -1.586802    0.393808
H      -1.977452    0.019961    0.906971
H       2.691647   -0.237808   -3.018361
H       4.729832   -1.278491    0.484051
