20

C      -0.076933    1.542932    0.028016
C      -0.028632    0.015273    0.027091
O       0.722118   -0.481031    1.134407
C      -1.429844   -0.607860   -0.025143
C      -1.384034   -2.125740   -0.103745
O      -2.742084   -2.597497   -0.091449
C      -2.888200   -3.934361   -0.258691
N      -4.218651   -4.257274   -0.274444
O      -1.978958   -4.716374   -0.406120
H       0.934839    1.952349    0.088913
H      -0.555038    1.926275   -0.878991
H      -0.649542    1.913229    0.887934
H       0.539337   -0.320530   -0.850111
H       0.307433   -0.150484    1.939520
H      -1.994860   -0.306704    0.868027
H      -1.976102   -0.212686   -0.889716
H      -0.890979   -2.468119   -1.019280
H      -0.836977   -2.548896    0.742336
H      -4.879900   -3.590618    0.086249
H      -4.433986   -5.233974   -0.171433
