19

C      -0.209501    1.469998   -0.001863
C       0.123480    0.015567   -0.049867
O      -0.800633   -0.913135    0.543108
C       0.567324   -0.957201    0.971807
C       1.341273   -1.802341   -0.057195
C       0.731646   -3.125959   -0.540062
C      -0.247525   -2.700859   -1.662842
O       0.201606   -1.431369   -2.156694
C       0.907703   -0.766513   -1.145165
H       0.675836    2.078154   -0.214197
H      -0.972128    1.714793   -0.749630
H      -0.596511    1.744428    0.983307
H       0.756854   -0.827798    2.031859
H       2.414230   -1.846968    0.134393
H       1.518560   -3.771173   -0.940984
H       0.215707   -3.674464    0.251766
H      -0.248780   -3.393230   -2.510874
H      -1.266246   -2.613630   -1.274128
H       1.705712   -0.168177   -1.595140
