19

O       0.311657    1.340269   -0.291290
C       0.075999   -0.018905   -0.028070
C       0.644423   -0.580957    1.320813
C      -0.581232   -1.325074    1.883091
C      -1.593167   -0.323338    2.472614
C      -2.192401    0.294103    1.172259
O      -2.019911    1.703739    1.037308
C      -1.406035   -0.478510    0.079063
O      -1.267726   -1.764734    0.687513
H      -0.315017    1.845683    0.244214
H       0.524093   -0.568414   -0.861030
H       1.480712   -1.262650    1.151381
H       0.991745    0.231250    1.964427
H      -0.365355   -2.189950    2.510010
H      -2.358276   -0.838296    3.058353
H      -1.128058    0.441691    3.100917
H      -3.257389    0.048726    1.083671
H      -2.466998    2.140929    1.767792
H      -1.926079   -0.566316   -0.874284
