17

O       0.105810    1.257967   -0.355379
C       0.003834   -0.029606    0.230478
C      -1.411149   -0.519441    0.236984
C      -2.573114   -0.159262    1.163375
C      -3.361522   -1.274822    0.424132
C      -3.451960   -0.710038   -1.001684
N      -1.963320   -0.848386   -1.138786
C      -1.972529   -1.862749   -0.043101
H      -0.290642    1.177619   -1.231240
H       0.636823   -0.762278   -0.293752
H       0.381520    0.065161    1.254210
H      -2.336794   -0.438234    2.193803
H      -2.982375    0.855950    1.136141
H      -4.181457   -1.802677    0.906643
H      -3.926247   -1.388784   -1.715264
H      -3.845088    0.304996   -1.134545
H      -1.539837   -2.851681   -0.122384
