20

C       0.016754    1.483513    0.197815
C       0.072568   -0.036636    0.205279
O       1.098313   -0.671769    0.385785
N      -1.119590   -0.657937   -0.000456
C      -2.481279   -0.217073   -0.325447
C      -2.857374   -1.702914   -0.559178
C      -2.538775   -2.237203   -1.984603
C      -1.120939   -2.690924   -1.512392
C      -1.400558   -2.087138   -0.113748
H       1.000681    1.867398    0.465812
H      -0.255900    1.858105   -0.794976
H      -0.728578    1.860216    0.906033
H      -2.997050    0.259709    0.518056
H      -2.562548    0.437998   -1.201990
H      -3.754587   -2.069480   -0.064322
H      -3.183089   -3.060980   -2.299174
H      -2.558955   -1.475237   -2.768985
H      -1.009886   -3.777939   -1.483948
H      -0.259761   -2.267648   -2.032029
H      -1.139697   -2.671162    0.770468
