18

C       0.004886    1.561063    0.087647
O       1.389836    1.911854   -0.066631
C       2.222774    0.750352    0.057573
C       1.316999   -0.289981    0.710010
N       1.658980   -1.694753    0.589457
C       0.654403   -2.469454    0.615794
O      -0.666435   -2.180033    0.728752
C      -1.085335   -0.790700    0.714910
C      -0.018589    0.039002    0.036391
H      -0.371268    1.941900    1.049905
H      -0.568605    2.037633   -0.714438
H       2.564811    0.406078   -0.929065
H       3.097991    1.013664    0.658485
H       1.240787   -0.038233    1.779130
H       0.778780   -3.547977    0.542758
H      -2.047226   -0.784713    0.195403
H      -1.247785   -0.471191    1.751541
H       0.053842   -0.282128   -1.011236
