20

C      -0.102766    1.564938    0.016220
C       1.445611    1.547548   -0.070647
C       1.430059    0.107187    0.535511
C      -0.070376    0.017076    0.107822
C       2.412699   -0.919649    0.076767
C       2.661037   -1.316453   -1.223285
N       3.636743   -2.280651   -1.198432
C       4.025870   -2.516107    0.094717
C       3.285432   -1.688372    0.904817
H      -0.449981    2.017734    0.949851
H      -0.655294    2.015694   -0.811681
H       1.790791    1.527627   -1.108963
H       2.006488    2.316917    0.466512
H       1.482015    0.182977    1.626861
H      -0.763136   -0.479165    0.792571
H      -0.165215   -0.447095   -0.878687
H       2.227327   -0.994932   -2.156956
H       4.009481   -2.743948   -2.008023
H       4.787365   -3.244183    0.323374
H       3.352048   -1.629504    1.981206
