21

C      -0.078527    1.566055    0.110415
C       0.057581    0.049653    0.084466
O      -1.235348   -0.556873   -0.016872
C       1.093323   -0.594832   -0.904312
C       1.776880   -1.277393    0.286873
C       2.222623   -0.248503    1.290166
C       0.773915   -0.648106    1.258049
C      -0.010202   -1.243646    2.404039
O      -0.987241   -0.331538    2.891082
H       0.893122    2.058920    0.195050
H      -0.546118    1.926847   -0.815258
H      -0.695057    1.874515    0.959287
H      -1.691522   -0.162564   -0.768176
H       0.586956   -1.297077   -1.569938
H       1.713172    0.087881   -1.496694
H       2.174154   -2.285387    0.287582
H       2.775112   -0.637870    2.140340
H       2.556073    0.734985    0.966770
H      -0.486878   -2.180810    2.082881
H       0.650086   -1.480360    3.245046
H      -1.623963   -0.241894    2.171160
