22

C       0.094086    1.565895    0.053270
C       0.025335    0.036454    0.057109
C      -1.408141   -0.500667   -0.031672
C      -1.469948   -2.033108   -0.029167
C      -2.901161   -2.618286   -0.020386
C      -3.697906   -2.286218   -1.293746
C      -2.800527   -4.123993    0.123039
O      -3.166495   -4.761986    1.075908
H       1.127813    1.918976    0.119497
H      -0.340944    1.980118   -0.863133
H      -0.457123    1.989177    0.900325
H       0.612403   -0.359562   -0.782128
H       0.500744   -0.350462    0.967958
H      -1.994294   -0.112988    0.812843
H      -1.880744   -0.104522   -0.939049
H      -0.925974   -2.422689   -0.901363
H      -0.936771   -2.405134    0.855382
H      -3.436204   -2.251807    0.862959
H      -4.698856   -2.727256   -1.257902
H      -3.815291   -1.206908   -1.416399
H      -3.191314   -2.671824   -2.186200
H      -2.331207   -4.629048   -0.757072
