19

C       0.002069    1.431582   -0.054021
O       1.291698    1.977199   -0.049637
C       2.127474    1.543975    1.021097
C       1.572380    1.804055    2.397681
C       1.213822    0.851978    3.267443
C       1.216268   -0.597469    3.004895
C       0.498156   -1.229009    2.069427
C      -0.534077   -0.584004    1.171598
O      -0.008115    0.026198   -0.011768
H      -0.598533    1.827867    0.780708
H      -0.430111    1.756285   -1.006640
H       2.356926    0.480337    0.905874
H       3.054203    2.112746    0.889412
H       1.516306    2.846163    2.705969
H       0.938439    1.150607    4.279472
H       1.848205   -1.196114    3.661600
H       0.614467   -2.305574    1.970954
H      -1.241048   -1.350856    0.836458
H      -1.101138    0.161196    1.743723
