17

O       0.036850    1.360137    0.112820
C      -0.011113   -0.024557    0.049652
C      -0.387433   -0.742301    1.299968
C      -1.369550   -0.738803    0.122895
C      -2.534271    0.095747    0.202365
C      -3.503964    0.806990    0.240987
C      -1.498693   -2.019404   -0.654874
C      -2.779161   -2.692513   -0.898631
O      -2.123041   -1.952470   -1.934272
H      -0.494309    1.715773   -0.609036
H       0.724910   -0.488663   -0.607411
H       0.100326   -1.681311    1.538571
H      -0.653368   -0.124050    2.148125
H      -4.363384    1.428922    0.287379
H      -0.595983   -2.633114   -0.630970
H      -2.802170   -3.772564   -1.037074
H      -3.693790   -2.242105   -0.519649
