23

C      -0.189779    1.516427    0.011165
C      -0.013106   -0.001662    0.002250
C       0.742205   -0.489744   -1.236970
O       0.964844   -1.890307   -1.184958
C       1.629734   -2.354838   -0.017271
C       1.460502   -3.868176   -0.024734
C       3.115235   -1.956153   -0.021282
O       0.974570   -1.902962    1.160833
C       0.752478   -0.503045    1.229802
H       0.778418    2.030882    0.010060
H      -0.746627    1.855430   -0.868620
H      -0.739538    1.845874    0.898998
H      -0.996246   -0.488847    0.003723
H       0.166270   -0.313138   -2.150778
H       1.691846    0.062053   -1.336194
H       1.919539   -4.293768   -0.919994
H       1.927056   -4.303406    0.861965
H       0.395535   -4.108224   -0.021539
H       3.262617   -0.874377   -0.016170
H       3.607769   -2.366418    0.863960
H       3.600437   -2.357004   -0.914847
H       1.702955    0.047665    1.327035
H       0.184204   -0.336308    2.150235
