15

O      -0.644459    0.797911   -0.628131
C       0.314091    0.801751    0.099702
C       1.414072    1.819085    0.010844
C       1.466207    3.032007    0.990397
C       2.968366    2.820235    0.689649
O       2.702525    1.383489    0.564333
C       3.044935    3.204594   -0.802075
O       3.824082    3.910911   -1.372808
C       1.830937    2.413458   -1.346073
H       0.447411    0.063541    0.920050
H       0.975407    3.962422    0.696514
H       1.219375    2.745625    2.013368
H       3.783735    3.091838    1.355894
H       2.134162    1.642850   -2.057994
H       1.084736    3.059055   -1.813592
