17

O       0.299191    1.452145    0.105193
C       0.105862    0.068322    0.048033
C       0.094100   -0.676293    1.401374
C      -0.961575    0.093197    2.212617
C      -2.087483    0.140785    1.114196
C      -2.563051    1.469290    0.748479
N      -2.971055    2.504593    0.433964
C      -1.310759   -0.577412   -0.020131
N      -0.765708   -1.744494    0.759090
H      -0.040380    1.864081   -0.696536
H       0.778970   -0.423034   -0.668739
H       1.002970   -0.986652    1.914952
H      -1.284281   -0.460801    3.094323
H      -0.618804    1.086807    2.499215
H      -2.947769   -0.465972    1.405368
H      -1.847388   -0.773806   -0.947987
H      -0.174172   -2.288473    0.129274
