19

C      -0.203708    1.476134    0.033221
C       0.036938   -0.043661    0.013572
C       0.777599   -0.516379   -1.212802
C       2.085080   -0.805252   -1.229807
C       2.776316   -1.256122   -2.483691
C       1.755587   -1.916455   -3.398096
O       0.589184   -1.102426   -3.579757
C      -0.003542   -0.557471   -2.485521
O      -1.109492   -0.089349   -2.594468
H       0.744830    2.022824    0.013405
H      -0.797419    1.779092   -0.831278
H      -0.742185    1.765417    0.940965
H       0.606666   -0.339402    0.901541
H      -0.930157   -0.555148    0.062212
H       2.675777   -0.697396   -0.322642
H       3.254442   -0.402547   -2.985041
H       3.576060   -1.970104   -2.256926
H       2.148607   -2.087469   -4.402502
H       1.448048   -2.882939   -2.977401
