20

C      -0.035232    1.557951   -0.048024
C       1.471463    1.845298    0.000948
C       1.941386    0.931085   -1.160437
C       1.449041   -0.362126   -0.470267
C       2.277355   -0.305965    0.836099
C       2.099545    1.123065    1.230871
N       1.416686    0.017832    1.966947
C       0.051699   -0.323334    1.544701
C      -0.002101    0.009036    0.047667
H      -0.603388    2.006930    0.771629
H      -0.461494    1.918047   -0.989721
H       1.753168    2.897622   -0.059737
H       1.454772    1.157828   -2.115762
H       3.025481    0.934413   -1.306732
H       1.519200   -1.292109   -1.034261
H       3.162337   -0.914656    0.991645
H       2.812406    1.663547    1.843948
H      -0.085827   -1.392842    1.744167
H      -0.693502    0.227543    2.127602
H      -0.809354   -0.490676   -0.489872
