20

C       1.104115    1.213420   -0.616197
C       0.192351    0.152278   -0.050933
N       0.791802   -1.113924    0.391132
C       0.139590   -0.240377    1.388237
C       1.005412    0.351455    2.447045
C       0.866629    0.208651    3.989749
C       1.914962    1.295912    3.673624
C       2.547629    0.371845    2.608099
O       1.006041    1.837073    2.637333
H       2.090399    1.174622   -0.153562
H       1.228950    1.068346   -1.694805
H       0.685763    2.210115   -0.448050
H      -0.769151    0.079988   -0.559571
H       0.189292   -1.901315    0.168042
H      -0.839995   -0.545310    1.752855
H      -0.073630    0.577562    4.402746
H       1.204899   -0.722799    4.451596
H       2.391905    2.012038    4.341790
H       3.033935   -0.548352    2.939882
H       3.098507    0.881735    1.818728
