20

C       0.019966    1.401840   -0.015729
O       0.009859   -0.008494    0.000908
C      -1.223549   -0.594047    0.005152
C      -1.383622   -1.966316    0.024099
C      -0.352444   -3.041984    0.043415
N      -2.747466   -2.205481    0.021976
C      -3.359952   -3.514198    0.043082
C      -3.423680   -1.016188    0.002567
C      -2.508468    0.014942   -0.008161
H       1.068194    1.708115   -0.015732
H      -0.470869    1.800857   -0.914465
H      -0.477140    1.821937    0.869853
H      -0.420048   -3.681285    0.933778
H      -0.407622   -3.701412   -0.833082
H       0.635995   -2.577402    0.044928
H      -3.088253   -4.069288    0.948131
H      -4.444936   -3.396914    0.023441
H      -3.060689   -4.109294   -0.826938
H      -4.501926   -0.997947   -0.001756
H      -2.741033    1.066899   -0.024525
