18

C      -0.002155    1.468527   -0.179613
C      -0.026764   -0.037876    0.119330
O       0.576903   -0.323464    1.369567
C      -1.433314   -0.573453    0.095776
N      -2.053570   -1.015316   -0.986595
N      -3.280865   -1.348552   -0.510303
C      -4.290492   -1.900934   -1.387227
C      -3.334508   -1.100492    0.811526
N      -2.185834   -0.605800    1.233838
H       1.026156    1.834941   -0.120016
H      -0.397030    1.675583   -1.179326
H      -0.608042    2.010764    0.553583
H       0.555509   -0.562398   -0.646349
H      -0.129008   -0.280143    2.027937
H      -3.933027   -2.832703   -1.832297
H      -5.191674   -2.099569   -0.804527
H      -4.523184   -1.192064   -2.185546
H      -4.211776   -1.295204    1.410434
