16

N       0.057313   -1.210907   -0.482633
C       0.035913   -0.090705   -0.199913
C       0.038220    1.337224    0.089817
C      -0.486007    2.290125   -1.032948
C       0.820961    3.129054   -0.937680
C       1.405648    2.119913    0.093476
O       1.556446    2.555052    1.422354
C       0.258832    2.620535    1.963367
O      -0.490752    1.563783    1.382284
H      -0.629256    1.785975   -1.989762
H      -1.413092    2.794141   -0.754434
H       1.394031    3.201050   -1.863290
H       0.697537    4.133609   -0.528021
H       2.307095    1.585233   -0.203416
H       0.311029    2.466251    3.043377
H      -0.216195    3.589567    1.737330
