15

N       0.070525    1.382923    0.156091
C      -0.021068    0.013813    0.058510
C      -1.174603   -0.704638    0.036027
C      -1.174550   -2.151719   -0.001056
N      -2.265707   -2.835875   -0.018216
N       0.112953   -2.698177   -0.017953
N       1.287873   -2.021398   -0.016616
C       1.220601   -0.739489    0.022596
O       2.364451   -0.006304    0.017731
H       0.945320    1.789650   -0.134734
H      -0.748372    1.914268   -0.093620
H      -2.146775   -0.227198    0.051442
H      -2.076693   -3.839045   -0.046261
H       0.221318   -3.699076   -0.050994
H       3.101177   -0.630511   -0.022869
