15

N       0.088512    1.265210    0.020404
C       0.092879   -0.078179   -0.192699
O       1.142123   -0.679433   -0.427914
C      -1.223927   -0.755077   -0.094318
C      -1.734229   -1.631936   -1.274650
O      -0.969554   -1.789215   -2.410600
C      -1.255228   -2.286359   -0.021256
O      -0.065351   -2.996483   -0.123537
H       0.951061    1.762391   -0.135046
H      -0.768809    1.789855    0.032516
H      -1.993744   -0.223168    0.455401
H      -2.797478   -1.550046   -1.480323
H      -0.280423   -2.431751   -2.176908
H      -1.966374   -2.736730    0.665776
H       0.656162   -2.329351   -0.149029
