18

C       0.044994    1.225337   -0.409898
N      -0.095124   -0.190315   -0.107558
C      -1.236866   -0.700029    0.037392
O      -2.440112   -0.082438   -0.051729
C      -3.489314   -1.079481   -0.099043
C      -2.798714   -2.416797   -0.386366
O      -2.631378   -2.572240   -1.775720
C      -1.429836   -2.184492    0.278778
O      -0.402803   -2.943345   -0.306116
H       0.821209    1.352174   -1.170675
H      -0.882900    1.689787   -0.761864
H       0.381557    1.760875    0.485723
H      -4.014067   -1.085710    0.862586
H      -4.181447   -0.804016   -0.896390
H      -3.352399   -3.258158    0.051403
H      -1.763957   -2.990878   -1.882979
H      -1.499089   -2.378759    1.360448
H       0.322581   -2.310046   -0.442140
