19

C       0.158697    1.584656   -0.086362
C      -0.025438    0.081492    0.139245
N       0.715825   -0.428363    1.277043
C       2.152306   -0.618765    1.279788
C       2.398237   -1.138418    2.690152
C       1.950847   -0.317137    3.836621
N       1.093241   -1.413410    3.322527
C       0.094468   -0.901136    2.410698
O      -1.092125   -0.902048    2.627098
H       1.205042    1.841511   -0.281681
H      -0.429101    1.910253   -0.950055
H      -0.175882    2.149759    0.788428
H      -1.075043   -0.146949    0.340887
H       0.272427   -0.474408   -0.760593
H       2.459238   -1.362842    0.530252
H       2.694151    0.310996    1.064135
H       3.165138   -1.892437    2.829968
H       2.362997   -0.495149    4.824598
H       1.625704    0.702982    3.647598
