14

O      -0.450946    1.173323    0.154770
C      -0.044725   -0.099739    0.097774
C       0.865262   -0.885109   -0.872054
C      -0.054189   -2.058889   -0.890727
N       1.017579   -1.970992    0.159521
C       0.057495   -1.198847    1.064549
C      -1.075903   -1.375915    0.027075
C      -2.447085   -0.990874    0.117206
O      -2.807569   -0.076185    0.862795
H      -1.334031    1.155453    0.588595
H       1.672620   -0.582678   -1.526694
H      -0.122668   -2.886049   -1.588583
H      -0.013228   -1.288367    2.141546
H      -3.172436   -1.501546   -0.545680
