18

C      -0.121678    1.504475    0.132166
C      -0.057790    0.051533    0.082623
C      -0.011184   -1.151392    0.041937
C       0.051832   -2.602643   -0.007623
C       0.331040   -3.366192    1.337237
C      -1.026337   -4.101298    1.151330
N      -1.239858   -3.316324   -0.061779
C      -2.313450   -3.231850   -0.876477
O      -3.328102   -3.885837   -0.741151
H       0.446635    1.956779   -0.687669
H      -1.156710    1.854209    0.053035
H       0.286740    1.887850    1.073532
H       0.726989   -2.916855   -0.814251
H       1.216935   -4.000426    1.316252
H       0.372437   -2.705716    2.202151
H      -0.958854   -5.178473    0.968035
H      -1.778615   -3.923928    1.925682
H      -2.160051   -2.491619   -1.687474
