18

C      -0.099426    1.507379   -0.060470
C      -0.026053   -0.023951    0.014510
O       0.673665   -0.552396   -1.116703
C       0.687777   -0.512484    1.232522
C       0.173056   -1.230005    2.238083
N       1.136569   -1.513163    3.215860
C       2.375473   -0.993023    2.874886
O       3.388880   -1.088219    3.526056
C       2.154707   -0.292590    1.523617
H       0.904360    1.941520   -0.088414
H      -0.633153    1.823563   -0.964860
H      -0.633951    1.914390    0.802984
H      -1.054800   -0.420334    0.041035
H       0.313718   -0.135560   -1.906603
H      -0.838561   -1.590524    2.364505
H       0.983631   -2.041251    4.058478
H       2.807106   -0.733882    0.762898
H       2.441187    0.761573    1.610832
