18

C       0.549701    0.570815    0.479467
O      -0.109895   -0.558804   -0.069676
C      -1.528557   -0.442788   -0.110426
C      -2.048658   -1.604697   -0.967862
O      -2.365250   -2.763084   -0.193434
C      -1.667705   -2.816934    1.005014
O      -2.061444   -1.744375    1.877529
C      -2.109201   -0.517715    1.293004
N      -2.574200    0.508431    1.870681
H       1.620365    0.364523    0.419053
H       0.322946    1.479300   -0.096779
H       0.270007    0.747820    1.524878
H      -1.819460    0.520926   -0.544993
H      -2.972472   -1.317048   -1.476193
H      -1.283270   -1.840719   -1.718018
H      -1.954767   -3.735710    1.517224
H      -0.582479   -2.765890    0.854028
H      -2.907806    0.264036    2.806759
