12

N      -0.093647    1.261486    0.148709
C      -0.535824    0.077335   -0.324252
O      -0.949093   -0.152906   -1.430016
O      -0.434611   -0.855141    0.695634
C      -0.815129   -2.133960    0.482797
N      -0.697984   -2.976528    1.472897
O      -1.149676   -4.166237    0.976955
N      -1.546085   -4.053144   -0.324673
C      -1.350333   -2.807860   -0.655932
H      -0.099898    2.052784   -0.469045
H       0.234514    1.355579    1.093214
H      -1.576037   -2.426646   -1.634454
