19

N       0.331753   -1.222902   -1.118198
C       0.374548   -0.068073   -1.117952
C       0.450992    1.390371   -1.097932
C       1.502614    1.913738   -0.093434
C       1.532779    3.425520   -0.083158
C       2.700532    4.276764    0.217801
C       4.017025    3.691207   -0.288213
C       3.338597    3.614192   -1.677582
N       2.072939    4.268573   -1.176898
H       0.684183    1.746724   -2.107225
H      -0.539095    1.789618   -0.849422
H       1.247239    1.558857    0.911032
H       2.476857    1.482679   -0.333420
H       0.589129    3.856170    0.252104
H       2.618589    5.141458    0.869675
H       4.835334    4.412306   -0.262979
H       4.358310    2.763037    0.179746
H       3.799106    4.262512   -2.424661
H       3.195503    2.623993   -2.121604
