20

C      -0.302081    1.499080   -0.066624
C      -0.037435    0.017448    0.051675
N       1.322106   -0.465098   -0.237974
C       0.785354   -0.594390    1.132698
C       1.474662    0.210976    2.234582
C       1.937251   -0.720116    3.356367
O       2.539234    0.082250    4.355543
C       2.688035    0.958797    1.684262
O       2.735906    2.144456    1.495280
H       0.521024    2.090586    0.338272
H      -0.438249    1.778196   -1.116716
H      -1.218843    1.764356    0.471844
H      -0.853408   -0.612098   -0.303588
H       1.300781   -1.357045   -0.723413
H       0.477637   -1.592146    1.445475
H       0.793551    0.957114    2.656767
H       1.073635   -1.280283    3.748051
H       2.648446   -1.457799    2.947041
H       2.908933   -0.492637    5.032081
H       3.560354    0.302148    1.470754
