21

C      -0.060118    1.634284   -0.244025
C      -0.130998    0.127745   -0.495660
C      -1.516382   -0.491725   -0.203625
O      -2.519907    0.089222   -1.048119
C      -1.537851   -1.982084   -0.588545
O      -0.517203   -2.656429    0.103085
C      -0.488095   -4.036665   -0.171830
C      -1.883615   -0.323184    1.208895
C      -2.210483   -0.144647    2.352168
H       0.936490    2.017558   -0.481047
H      -0.777338    2.172953   -0.871827
H      -0.272148    1.873259    0.802740
H       0.090869   -0.084700   -1.548151
H       0.611927   -0.402779    0.106044
H      -2.843001    0.885004   -0.614756
H      -2.528068   -2.397245   -0.348556
H      -1.397267   -2.050979   -1.679728
H      -1.429485   -4.529146    0.117594
H      -0.310700   -4.236751   -1.240376
H       0.330272   -4.467890    0.409464
H      -2.494801   -0.002385    3.365674
