19

C      -0.150859    1.537384    0.052913
C       0.166141    0.078515    0.016347
C       0.704938   -0.749597   -1.160318
C       1.323490   -1.766422   -0.128055
C       2.824956   -1.798285   -0.182765
O       3.499078   -2.796418   -0.165698
C       0.745390   -0.861882    1.001905
C       1.236354   -0.726852    2.406403
O      -0.668241   -0.818905    0.771427
H       0.681130    2.125699   -0.347212
H      -1.038027    1.754065   -0.552906
H      -0.353333    1.864357    1.076147
H      -0.050367   -1.160553   -1.833329
H       1.470588   -0.228475   -1.743753
H       0.928458   -2.783770   -0.138888
H       3.301644   -0.789510   -0.243874
H       2.313860   -0.534797    2.431243
H       0.721236    0.092646    2.914135
H       1.046841   -1.647834    2.969018
