20

O      -0.053178    1.409944    0.155793
C       0.035764    0.004251    0.003959
C      -1.338146   -0.589310   -0.105179
C      -2.405928   -0.396452   -1.235247
C      -2.610906   -1.935058   -1.249334
C      -1.807187   -2.072222    0.072225
C      -2.593501   -1.568620    1.299331
N      -2.351414   -0.124235    0.949790
C      -3.269204    0.298701   -0.166808
H      -0.687794    1.543257    0.873705
H       0.623032   -0.189342   -0.900827
H       0.570546   -0.459850    0.850637
H      -2.231742    0.112660   -2.183507
H      -3.639475   -2.310921   -1.259683
H      -2.064186   -2.390326   -2.080295
H      -1.147775   -2.933697    0.187866
H      -3.650356   -1.847226    1.379156
H      -2.099505   -1.803217    2.247534
H      -3.255301    1.389056   -0.254873
H      -4.307893   -0.031999   -0.051888
