22

C       0.003009    1.576007    0.052759
C      -0.086086    0.053530    0.072897
N       0.764150   -0.497801    1.124468
C       0.788838   -1.949915    1.187127
C       1.970656   -2.410612    2.064637
N       3.221488   -1.955723    1.472578
C       4.376509   -2.122422    2.349392
C      -0.475107   -2.469790    1.738845
N      -1.460374   -2.897649    2.164331
H       1.025013    1.908583   -0.162737
H      -0.651413    1.991200   -0.719022
H      -0.290291    1.991122    1.020888
H      -1.119162   -0.253841    0.275912
H       0.169019   -0.350299   -0.925687
H       1.729834   -0.204774    0.997926
H       0.902290   -2.418989    0.187549
H       1.866452   -1.941793    3.048763
H       1.914766   -3.501953    2.210078
H       3.384243   -2.458416    0.605134
H       4.259007   -1.483047    3.230556
H       4.527194   -3.156597    2.702827
H       5.280993   -1.804710    1.823299
