22

C      -1.411569    0.869967    0.655543
C       0.014055    0.561289    0.184906
C       0.810469   -0.230038    1.220359
C       0.407831   -1.685581    1.513009
C       0.672777   -2.574855    0.329490
C       1.826207   -2.166604    1.202171
C       2.278683   -0.728923    0.901000
C       2.923408   -0.431267   -0.449008
H      -1.404743    1.456537    1.581387
H      -1.966750    1.440097   -0.095871
H      -1.968846   -0.052168    0.852580
H      -0.030507    0.012972   -0.763445
H       0.540440    1.499993   -0.032475
H       0.828086    0.344634    2.153329
H      -0.246135   -2.000675    2.317616
H       0.350313   -3.604456    0.449021
H       0.576234   -2.205216   -0.687645
H       2.419383   -2.903588    1.731309
H       2.947411   -0.376489    1.692828
H       2.317778   -0.789831   -1.286554
H       3.078322    0.644403   -0.587795
H       3.902704   -0.917778   -0.520652
