21

C       0.582668    0.529075    0.581794
C      -0.618196    0.009266   -0.210913
O      -1.559653    1.054737   -0.451214
C      -0.256255   -0.526584   -1.597799
C       0.629129   -1.757665   -1.578953
O       0.017658   -2.811123   -0.843924
C       0.309361   -4.037660   -1.507850
C       1.147179   -3.609161   -2.728746
O       0.807598   -2.242219   -2.889450
H       1.295124   -0.271070    0.805387
H       1.100003    1.317178    0.024800
H       0.255306    0.948877    1.540189
H      -1.094701   -0.805080    0.354839
H      -1.824821    1.412656    0.401847
H      -1.179327   -0.784853   -2.124591
H       0.247305    0.258916   -2.172190
H       1.618660   -1.542917   -1.132426
H       0.858328   -4.714580   -0.842547
H      -0.631847   -4.518279   -1.799159
H       2.223814   -3.725455   -2.531634
H       0.895122   -4.141906   -3.647843
