19

C      -0.034707    1.490930    0.005703
C      -0.037423   -0.017807    0.036927
C      -1.356840   -0.740886   -0.210614
O      -1.219380   -2.046287    0.340317
C      -0.273438   -1.993318    1.406154
C       0.662739   -0.848432    1.069142
C       1.235883   -0.780282   -0.347262
C       1.277328   -1.929034   -1.290171
O       2.189485   -2.096921   -2.067204
H       0.939262    1.891211    0.300559
H      -0.258016    1.868869   -0.998134
H      -0.787945    1.897121    0.690652
H      -2.167532   -0.183192    0.286817
H      -1.621712   -0.854824   -1.267006
H      -0.769681   -1.790071    2.368592
H       0.204797   -2.975847    1.468565
H       1.248168   -0.402813    1.865468
H       2.116558   -0.152211   -0.445890
H       0.421310   -2.629116   -1.246721
