22

C       0.077396    1.536779   -0.055951
C      -0.039644    0.018031    0.117950
C      -1.477546   -0.530088    0.054196
C      -2.378639    0.084795    1.122525
C      -2.043592   -0.545852   -1.406256
C      -1.598041   -2.026076   -1.550009
C      -1.491104   -2.090324   -0.005281
O      -0.377752   -2.719466    0.588840
H       1.129241    1.838343   -0.084012
H      -0.385962    1.876677   -0.988809
H      -0.395897    2.081989    0.766162
H       0.566695   -0.477868   -0.648283
H       0.401944   -0.277579    1.076273
H      -2.509304    1.161609    0.974643
H      -3.374861   -0.370222    1.101568
H      -1.962313   -0.066344    2.125619
H      -3.131421   -0.433959   -1.426330
H      -1.612277    0.170088   -2.109592
H      -2.283545   -2.721436   -2.041110
H      -0.611475   -2.117078   -2.011837
H      -2.428733   -2.469663    0.428985
H      -0.470154   -3.670005    0.471738
