17

O       0.714023    0.681870    0.682987
C       0.204678   -0.367073   -0.078079
C      -1.348413   -0.645698   -0.176364
C      -1.169914   -0.967828   -1.694602
C       0.149813   -0.201348   -1.595158
O       0.746974    0.545167   -2.320670
C      -1.885262   -1.722104    0.727066
C      -2.868895   -2.718790    0.288077
O      -1.485108   -3.060875    0.421034
H       0.912840    1.404871    0.074475
H       0.698971   -1.308609    0.198950
H      -1.895456    0.290101   -0.027581
H      -1.010557   -2.040231   -1.845061
H      -1.901090   -0.589229   -2.409533
H      -1.845489   -1.482887    1.791065
H      -3.534208   -3.181033    1.015217
H      -3.243869   -2.688851   -0.733740
