19

C      -0.116857    1.375729   -0.006745
C      -0.072724   -0.079767    0.020785
C       0.006013   -1.283616    0.063189
C       0.015526   -2.716328    0.072614
C      -0.509678   -3.497440    1.281840
C      -1.331152   -3.427500    0.031640
O      -2.491126   -2.642287    0.062417
C      -1.519234   -4.629523   -0.864907
O      -2.646096   -5.390976   -0.476957
H       0.877312    1.801795    0.167516
H      -0.473731    1.750871   -0.972304
H      -0.783865    1.767002    0.769231
H       0.821629   -3.184205   -0.486385
H      -0.002927   -4.424096    1.527917
H      -0.857433   -2.914952    2.126356
H      -2.253555   -1.744518   -0.207285
H      -1.610966   -4.283747   -1.907972
H      -0.648612   -5.290877   -0.805272
H      -3.375746   -4.764060   -0.403971
