19

C       0.009848    1.601625   -0.080174
C       0.013326    0.071779   -0.019032
C      -1.394453   -0.529537    0.052698
C      -1.396942   -2.060626    0.114555
C      -2.813744   -2.656126    0.197036
C      -2.794038   -4.165812    0.149571
O      -3.267940   -4.894222    0.982794
H       1.027360    2.001640   -0.127287
H      -0.530677    1.961838   -0.962598
H      -0.476517    2.031694    0.802421
H       0.533882   -0.330146   -0.898321
H       0.592431   -0.259187    0.853118
H      -1.916831   -0.129533    0.932358
H      -1.976533   -0.201371   -0.819852
H      -0.884020   -2.462717   -0.769769
H      -0.815205   -2.393772    0.983645
H      -3.331847   -2.340712    1.107537
H      -3.399201   -2.306691   -0.666564
H      -2.278832   -4.585103   -0.748184
