21

C      -0.308863    1.459005   -0.650134
C       0.045885    0.248410    0.222804
C      -1.182389   -0.546276    0.597806
O      -1.791164   -1.344523   -0.427383
C      -1.255771   -2.010711    0.725675
C      -0.107130   -2.966919    0.492887
C      -0.598635   -4.270998   -0.094055
C       0.010245   -5.561390    0.245487
O      -1.240575   -5.171538    0.815595
H       0.585758    2.029063   -0.917013
H      -0.796712    1.134057   -1.573798
H      -0.994700    2.135807   -0.129095
H       0.760350   -0.388682   -0.306348
H       0.537688    0.582465    1.145831
H      -1.910374    0.023557    1.182312
H      -2.023264   -2.410949    1.391271
H       0.627466   -2.522736   -0.185690
H       0.392542   -3.172070    1.447349
H      -1.105787   -4.179717   -1.055307
H      -0.034455   -6.387661   -0.462534
H       0.850564   -5.590921    0.938726
