16

O      -0.112049    1.539511   -0.286816
C       0.014696    0.139871   -0.227325
C      -1.275143   -0.630616   -0.094374
C      -1.834274   -0.851206   -1.462166
C      -0.913248   -0.211305   -2.488423
C      -1.007637    1.252092   -2.876073
O      -0.217281    1.779474   -3.618798
C       0.206989   -0.678102   -1.526242
N      -0.751087   -1.761645   -0.945304
H       0.760751    1.931837   -0.399812
H       0.734734   -0.179882    0.536151
H      -1.852242   -0.819710    0.802547
H      -2.842967   -1.220593   -1.605977
H      -0.871536   -0.818542   -3.398387
H      -1.867310    1.810567   -2.448387
H       1.188909   -0.961475   -1.896958
