21

O       0.105316    0.959402   -0.841173
C      -0.094281   -0.352180   -0.333613
C      -1.506469   -0.431867    0.215890
C      -2.609315   -0.395878   -0.886536
C      -2.807648   -1.902940   -0.674216
C      -4.030453   -2.734558   -0.994376
C      -2.754246   -2.921394   -1.773931
O      -2.632653   -2.555116   -3.118316
C      -1.947297   -1.879300    0.594902
H       0.966754    0.990299   -1.267067
H       0.033920   -1.108759   -1.125195
H       0.626892   -0.586557    0.466976
H      -1.624386    0.314629    1.005054
H      -3.478669    0.208335   -0.611753
H      -2.260044   -0.078928   -1.874904
H      -4.336404   -3.509925   -0.297749
H      -4.857726   -2.233192   -1.491234
H      -2.182434   -3.828212   -1.598696
H      -3.114154   -1.732796   -3.255886
H      -1.149873   -2.627831    0.662324
H      -2.534678   -1.916934    1.517457
