16

C      -0.071669   -1.211433   -0.090055
C      -0.035634   -0.011817   -0.033842
C      -0.013018    1.441613    0.013746
C      -0.996891    1.984058   -0.926182
N      -1.774529    2.407688   -1.669169
C       0.081104    2.155482    1.426254
C       1.541486    1.627569    1.517309
C       1.389079    2.179509    0.070992
C       0.655412    3.401173    0.693596
H      -0.103969   -2.272090   -0.140283
H      -0.698703    2.118401    2.186130
H       2.206306    2.196734    2.169025
H       1.679398    0.552702    1.631353
H       2.121205    2.170203   -0.735723
H      -0.021163    3.965205    0.050626
H       1.275374    4.059798    1.303604
