13

N      -0.021164    1.061498    0.161516
C      -0.180852   -0.271400   -0.065678
O       0.702055   -1.091282    0.038822
C      -1.603239   -0.653057   -0.515481
O      -1.686742   -2.058134   -0.737658
C      -1.735766   -2.806542    0.370390
O      -1.828180   -2.413697    1.499169
C      -1.707562   -4.227903    0.012180
N      -1.699904   -5.360843   -0.209832
H       0.860738    1.368617    0.539938
H      -0.803262    1.691453    0.219842
H      -2.336749   -0.341770    0.234254
H      -1.838980   -0.191278   -1.476339
