19

N       0.399367    1.472122   -0.063449
C       0.157766    0.087709    0.000227
C      -1.044493   -0.579782    0.069046
C      -0.768564   -1.973941    0.115382
C       0.595969   -2.121656    0.085424
N       1.167441   -0.868938    0.002614
C       2.591279   -0.615587   -0.049298
C       3.222446   -0.297677    1.305794
O       2.829605    1.013165    1.695367
H       1.217585    1.735531    0.474948
H       0.484634    1.823381   -1.011247
H      -2.010644   -0.100077    0.089880
H      -1.488514   -2.776079    0.172656
H       1.216245   -3.003974    0.119367
H       3.079863   -1.500135   -0.468707
H       2.784114    0.222008   -0.728466
H       2.898248   -1.047306    2.039360
H       4.317928   -0.359112    1.212616
H       2.863813    1.080797    2.652961
