20

C      -0.089215    1.543929   -0.070900
C       0.027887    0.030342    0.034699
O       0.869985   -0.479691   -1.025579
C       1.858571   -1.187349   -0.328640
C       1.262179   -1.952927    0.883175
N       2.577461   -1.771736    1.592172
C       2.298429   -0.434644    0.957635
C       0.752273   -0.510904    1.271075
C       0.188253   -0.205631    2.636773
H       0.882927    2.024423    0.077667
H      -0.458506    1.822309   -1.061805
H      -0.789501    1.934102    0.674950
H      -0.968049   -0.426189   -0.064574
H       2.586726   -1.651585   -0.988965
H       0.708914   -2.893954    0.895840
H       2.417736   -1.712376    2.600968
H       2.975519    0.415399    1.057716
H       0.169413    0.872177    2.828847
H      -0.838056   -0.578362    2.730867
H       0.780758   -0.669963    3.432922
