12

O      -0.033514    1.292913    0.009240
N       1.281434    1.805369   -0.000549
C       2.103802    0.793957   -0.013814
C       1.392746   -0.447820   -0.013571
C       0.049822   -0.046707    0.001336
N      -0.990674   -0.859989    0.006948
C      -0.624966   -2.144495   -0.003331
C       0.718038   -2.572925   -0.018386
N       1.752302   -1.733454   -0.023794
H       3.168700    0.977770   -0.023001
H      -1.425885   -2.878260    0.000417
H       0.943852   -3.634975   -0.026159
