22

C      -0.043817    0.846537   -0.616830
C       0.222509   -0.543256   -0.019842
C       0.869053   -0.532038    1.361258
C       0.074140    0.183874    2.440119
C       1.711667   -1.701016    1.763421
N       2.322795   -0.394897    1.544813
C       3.274785   -0.178492    0.449620
C       3.366332   -1.174955   -0.623620
C       3.484684   -2.010304   -1.481548
H       0.878235    1.428362   -0.717724
H      -0.485440    0.754885   -1.613876
H      -0.736531    1.430055   -0.003213
H      -0.731215   -1.081099    0.065756
H       0.838847   -1.122607   -0.710910
H      -0.932824   -0.240954    2.526324
H       0.575093    0.091166    3.406358
H      -0.029107    1.251449    2.220981
H       1.714825   -2.058151    2.791466
H       1.881936   -2.470965    1.013232
H       3.072829    0.808107    0.016534
H       4.267715   -0.105471    0.912887
H       3.582879   -2.738194   -2.248770
