22

C      -0.144914    1.568808    0.040600
C       0.137892    0.068233   -0.041749
N       1.188807   -0.392268   -0.981615
C       1.583268    0.370367   -2.141319
C       2.140404   -0.759186    0.095265
C       3.384207    0.110610    0.282066
C       0.995397   -0.517478    1.089013
C       1.010978   -0.242164    2.523895
O       0.530612   -1.491155    2.002060
H       0.756450    2.146207    0.268993
H      -0.559650    1.944140   -0.900655
H      -0.882235    1.767344    0.825700
H      -0.808319   -0.471373   -0.186550
H       1.984856    1.377074   -1.931592
H       2.348437   -0.182527   -2.697552
H       0.722524    0.489250   -2.808821
H       2.441688   -1.814245    0.035818
H       3.131221    1.164976    0.431466
H       3.949641   -0.229134    1.156308
H       4.048626    0.040040   -0.585349
H       1.946270   -0.297846    3.079858
H       0.250961    0.402639    2.963862
