18

C      -0.039052   -1.203047   -0.005359
C      -0.019454   -0.001130    0.001441
C       0.040065    1.456529    0.009187
C       1.461003    1.992723   -0.001360
C       2.554770    1.765678   -1.088602
C       3.210459    2.678774   -0.014216
C       1.886002    3.493451    0.004474
C       2.576204    1.751256    1.060705
H      -0.070526   -2.264038   -0.011137
H      -0.500778    1.851611   -0.861433
H      -0.484022    1.841646    0.894393
H       2.945569    0.749053   -1.179316
H       2.369019    2.214438   -2.069087
H       4.224726    3.077698   -0.021660
H       1.650318    4.072367   -0.893605
H       1.668364    4.060204    0.914782
H       2.410128    2.186812    2.050625
H       2.968574    0.733552    1.129959
