19

C      -0.057605    1.544303    0.065293
C      -0.030265    0.010685    0.016657
C       0.682860   -0.526395   -1.198747
C       0.134877   -0.308739   -2.643337
C       0.898177   -1.577973   -3.008116
C       0.933481   -2.040637   -1.602814
N       2.204657   -1.621141   -2.255613
C       2.200626   -0.369772   -1.430309
H       0.955655    1.959880    0.079711
H      -0.574535    1.959730   -0.805962
H      -0.575222    1.899593    0.961098
H       0.458509   -0.376425    0.920605
H      -1.057727   -0.375942    0.035886
H      -0.944674   -0.478222   -2.695381
H       0.387797    0.629859   -3.149248
H       0.860456   -2.158381   -3.920507
H       0.776042   -2.998802   -1.124470
H       2.564298    0.531217   -1.939625
H       2.795177   -0.551974   -0.530102
