19

C       0.339333    1.580201   -0.013840
C       0.001331    0.087091    0.137901
C      -1.522924   -0.136784    0.158470
O      -2.100609    0.202918   -1.081641
N       0.498337   -0.665260   -1.007406
C       1.693718   -1.103084   -1.034038
N       2.663836   -0.999345   -0.058321
C       2.149293   -1.896279   -2.242021
O       1.478185   -2.102894   -3.212995
H       1.415524    1.744905   -0.128182
H      -0.166615    1.977966   -0.896143
H      -0.001783    2.138493    0.863732
H       0.414693   -0.291245    1.088841
H      -1.721448   -1.188055    0.422233
H      -1.989563    0.495215    0.922407
H      -1.549824   -0.244897   -1.740415
H       2.559025   -0.301315    0.658512
H       3.617123   -1.202918   -0.313172
H       3.192525   -2.286430   -2.161986
