17

C      -0.449342    1.411394    0.126846
C      -0.153112   -0.068747    0.127040
O       0.934961   -0.535326    0.364670
C      -1.345199   -0.992061   -0.215913
C      -1.563684   -0.949742   -1.734642
O      -1.981544    0.011328   -2.325011
C      -1.109836   -2.405743    0.261169
C      -1.753040   -2.934824    1.467106
O      -2.236789   -3.282415    0.167843
H       0.478993    1.980176    0.189454
H      -1.018839    1.680175   -0.768114
H      -1.080873    1.651678    0.990968
H      -2.253078   -0.572098    0.231174
H      -1.288046   -1.883821   -2.268055
H      -0.163286   -2.843093   -0.050475
H      -1.276927   -3.741918    2.020698
H      -2.409030   -2.292785    2.053808
