18

C       0.428717    1.563180   -0.203230
C       0.067229    0.113144    0.012534
O       0.879264   -0.813547   -0.780608
C       1.157173   -1.631701    0.359790
C       2.516205   -1.286598    1.050168
N       1.825076   -0.180075    1.802105
C       0.493807   -0.614221    1.310830
C       3.053016   -2.344975    1.884753
C       3.465217   -3.223730    2.595734
H       1.449934    1.755505    0.131903
H       0.341399    1.816976   -1.264185
H      -0.253943    2.210436    0.358475
H      -0.994106   -0.066074   -0.211368
H       0.904790   -2.684419    0.222312
H       3.273220   -0.911400    0.353186
H       1.934468   -0.273897    2.804796
H      -0.263448   -0.831669    2.064360
H       3.845571   -3.997921    3.215365
