16

N      -0.062325    1.279420   -0.050057
C      -0.031768    0.021799   -0.018077
O       1.101789   -0.760610    0.014583
C       0.651532   -2.142463    0.063790
C      -0.614774   -2.100844   -0.808619
C      -1.219196   -0.926070    0.003551
C      -1.199076   -1.542087    1.422766
O      -2.021193   -1.412167    2.283997
C       0.091468   -2.389242    1.472038
H       0.884065    1.664670   -0.056101
H       1.475861   -2.777328   -0.254009
H      -0.406484   -1.842867   -1.848783
H      -1.206090   -3.018483   -0.762946
H      -2.162908   -0.475516   -0.285754
H      -0.154555   -3.441507    1.647104
H       0.759812   -2.054331    2.268570
