12

O       0.064487   -0.052999    0.001886
C      -0.018306    1.138504    0.008956
C      -1.212370    2.044221    0.031310
C      -0.814425    3.330930    0.032004
C       0.648275    3.362793    0.010653
C       1.799126    4.100610   -0.002714
N       2.868167    3.219049   -0.022748
N       2.437742    1.997914   -0.022506
N       1.083700    2.074005   -0.002279
H      -2.218102    1.652102    0.044162
H      -1.444837    4.208555    0.045780
H       1.957374    5.166020    0.000284
