17

O      -0.017764    1.426675    0.049739
C       0.072563    0.009369    0.033729
C      -1.357685   -0.521321    0.088540
C      -1.433558   -2.042738    0.051444
O      -0.754752   -2.541150    1.173806
C      -2.836174   -2.626584   -0.275483
O      -2.356364   -3.067803   -1.585864
C      -1.069876   -2.670065   -1.322205
O      -0.101232   -2.836862   -1.991169
H       0.875207    1.782133    0.026145
H       0.568230   -0.354534   -0.878264
H       0.637075   -0.371513    0.895116
H      -1.836753   -0.173582    1.011019
H      -1.924534   -0.105560   -0.751350
H      -0.607267   -3.487440    1.069127
H      -3.128409   -3.480183    0.340767
H      -3.659877   -1.918135   -0.378591
