19

C      -0.186639    1.535868    0.067735
C       0.097099    0.056346   -0.013314
C      -0.670316   -0.913388    0.853925
C       0.815302   -0.728720    1.098111
N       1.695854   -1.746993    0.537770
C       1.313460   -1.862632   -0.886488
C       0.665686   -0.518569   -1.305446
C       1.263645   -0.099726    2.306414
N       1.631839    0.431004    3.266642
H       0.679687    2.120878   -0.260042
H      -1.034518    1.806988   -0.571456
H      -0.428294    1.841143    1.089957
H      -1.336978   -0.486689    1.594797
H      -0.994179   -1.871204    0.461429
H       2.649051   -1.401524    0.603474
H       2.187925   -2.123076   -1.486368
H       0.596572   -2.682448   -0.998003
H      -0.093797   -0.656628   -2.081799
H       1.417604    0.175832   -1.699585
