20

C       0.021378    1.480901   -0.122455
C       0.034287   -0.034278   -0.029620
O       0.626583   -0.548031   -1.218426
C       0.704585   -1.964964   -1.292171
C      -0.510424   -2.486598   -2.069330
O      -0.591704   -1.876408   -3.340847
C       2.017041   -2.303856   -2.021622
C       3.187076   -1.798596   -1.310360
N       4.108623   -1.411233   -0.731068
H       1.038596    1.863740   -0.239783
H      -0.573348    1.812603   -0.978607
H      -0.411123    1.910735    0.785626
H       0.619828   -0.365407    0.840784
H      -0.988252   -0.423691    0.091666
H       0.723398   -2.403100   -0.284393
H      -0.433603   -3.567224   -2.230569
H      -1.419085   -2.304441   -1.474002
H      -0.515715   -0.927171   -3.178149
H       2.109106   -3.389274   -2.136310
H       1.978180   -1.873243   -3.026528
