20

C       0.907256   -0.372178    1.305155
C       0.101841    0.076646    0.082189
C       0.705176   -0.395753   -1.248967
C       0.703609   -1.945625   -1.427142
N       0.350521   -2.140521   -2.844913
C      -0.199950   -0.990214   -3.328486
C      -0.039642    0.068958   -2.496296
C      -0.416727    1.417882   -2.823818
O      -0.232308    2.401290   -2.125180
H       0.957946   -1.464381    1.384992
H       1.935622    0.003884    1.259618
H       0.458389    0.002463    2.230069
H      -0.928931   -0.294950    0.155764
H       0.039147    1.167457    0.049898
H       1.739687   -0.026013   -1.297490
H       1.666464   -2.410600   -1.201859
H      -0.056156   -2.405337   -0.778210
H       0.018375   -3.037739   -3.161803
H      -0.661931   -0.986913   -4.309242
H      -0.919852    1.517429   -3.814944
