20

C      -0.049126    1.642802    0.295768
C       0.003985    0.135081    0.141685
C      -1.306046   -0.463734   -0.381182
C      -1.639616   -0.011112   -1.734030
N      -1.892239    0.354831   -2.800711
C       1.220438   -0.627092   -0.326296
C       2.524892   -0.016447    0.199938
C       1.995693   -0.178421    1.662557
C       0.700478   -0.789121    1.112337
H       0.893118    2.057833    0.656818
H      -0.277119    2.122339   -0.662092
H      -0.830937    1.931954    1.008150
H      -1.247388   -1.557838   -0.392968
H      -2.137020   -0.198532    0.284145
H       1.153737   -1.317793   -1.159700
H       3.388441   -0.655930    0.006842
H       2.764730    0.994939   -0.141419
H       2.583829   -0.901331    2.231390
H       1.891901    0.728975    2.265245
H       0.175101   -1.626780    1.558816
