16

C      -0.430785    1.342076   -0.077300
O      -0.249559   -0.063253   -0.298015
C       0.615498   -0.385577   -1.278676
O       1.189707    0.405395   -1.975826
C       0.766669   -1.896362   -1.323497
N       1.632103   -2.434353   -2.385365
C       2.446470   -3.249734   -1.450380
C       1.747871   -2.528891   -0.289654
O       1.888723   -2.459974    0.888987
H      -0.826948    1.823518   -0.974927
H      -1.139816    1.423903    0.746179
H       0.518499    1.814829    0.186256
H      -0.227051   -2.353954   -1.217661
H       1.147475   -2.957205   -3.103111
H       2.240787   -4.329623   -1.440083
H       3.528208   -3.097589   -1.533634
