15

N       0.242809    1.372766   -0.029264
C       0.041697   -0.045387   -0.058445
C       0.077509   -0.692595    1.368630
N      -1.398752   -0.809895    1.331090
C      -1.434623   -0.632881   -0.135241
C      -2.469217    0.270712   -0.625520
N      -3.248676    1.020369   -1.033589
C       0.800299   -1.964116    1.427865
N       1.336798   -2.987648    1.470389
H       0.185306    1.770473   -0.960825
H      -0.457232    1.838027    0.541473
H       0.719180   -0.496528   -0.782578
H       0.447346   -0.025815    2.153468
H      -1.796405   -1.670918    1.689514
H      -1.464274   -1.565684   -0.712684
