17

C      -0.219906    1.893414    1.113420
C      -0.053619    0.585851    0.337659
C       0.779138   -0.439166    1.156322
C       1.777189   -1.275074    0.386283
O       0.625093   -0.534254    2.348267
C      -1.417919   -0.039532    0.022004
O      -2.439500    0.314143    0.564276
C      -1.423602   -1.089986   -0.984320
C      -1.435266   -1.948576   -1.828621
H       0.753302    2.364520    1.276423
H      -0.860389    2.587818    0.565115
H      -0.675808    1.692110    2.082901
H       0.455338    0.742308   -0.620748
H       1.285723   -1.771857   -0.456451
H       2.550895   -0.622621   -0.036313
H       2.238775   -2.011081    1.045383
H      -1.466511   -2.710211   -2.570039
