19

C      -0.425084    1.477316   -0.078083
C      -0.057415   -0.006542   -0.052695
C       0.879003   -0.394782   -1.213425
C       1.297810   -1.865090   -1.107893
N       1.699959   -2.144914    0.259345
C       1.322028   -1.337880    1.284966
C       1.932474   -1.676511    2.608257
O       2.717855   -2.581979    2.761324
N       0.516818   -0.336840    1.253982
H       0.473807    2.096256    0.011835
H      -0.936379    1.742876   -1.009117
H      -1.080862    1.715683    0.763244
H      -0.988116   -0.588550   -0.155078
H       0.393381   -0.216211   -2.177384
H       1.770820    0.242279   -1.172697
H       0.467066   -2.519877   -1.407389
H       2.133607   -2.077735   -1.783054
H       2.389593   -2.847596    0.476658
H       1.596043   -1.013037    3.426671
