16

C       0.007703    1.579619   -0.099419
C       0.058465    0.071483    0.013260
N       1.026173   -0.620728   -0.864006
C       1.365807   -1.596274    0.184493
C       0.786740   -0.601291    1.255817
C       1.814393    0.242457    1.859326
N       2.632552    0.914794    2.320530
C      -0.087036   -1.175203    2.270406
N      -0.807187   -1.647156    3.040630
H       1.005669    2.013449   -0.006051
H      -0.398909    1.858565   -1.077039
H      -0.643169    2.005714    0.670657
H      -0.954239   -0.354200   -0.032309
H       0.642388   -1.009753   -1.717904
H       0.781906   -2.525098    0.177577
H       2.429147   -1.827457    0.278461
