23

C      -0.475918    1.655069   -0.534668
C      -0.403160    0.143167   -0.287769
C       0.519308   -0.568978   -1.275271
C       2.074839   -0.424343   -1.068962
O       2.584947    0.474792   -0.112126
C       2.195522   -1.949614   -0.831221
C       1.880806   -2.446685    0.609509
C       0.420937   -2.781670    0.184018
C       0.672980   -2.123459   -1.194281
H       0.515623    2.106998   -0.445844
H      -0.855250    1.868622   -1.540271
H      -1.142409    2.143628    0.183299
H      -0.078468   -0.037257    0.745534
H      -1.407581   -0.294064   -0.361113
H       0.234973   -0.257705   -2.286539
H       2.563144   -0.140044   -2.005166
H       2.258142    0.216520    0.755614
H       3.006461   -2.468528   -1.344263
H       2.473708   -3.307208    0.926407
H       1.976169   -1.690715    1.397580
H       0.258238   -3.859169    0.096334
H      -0.386215   -2.370509    0.795784
H       0.331903   -2.669682   -2.074468
