17

O      -0.007895    1.380588   -0.079247
C       0.017129   -0.014536   -0.011473
C      -0.457288   -0.699632    1.237883
C      -1.323622   -0.700381   -0.019547
C      -2.605171    0.057960   -0.094047
C      -3.554803   -0.647057   -0.720802
C      -2.996002   -1.947106   -1.200582
O      -1.918227   -1.792229   -2.157989
C      -1.582576   -1.976271   -0.781283
H       0.721956    1.715856    0.452247
H       0.812857   -0.489580   -0.585242
H       0.005823   -1.636518    1.532792
H      -0.785155   -0.068142    2.056593
H      -2.696733    1.068531    0.282133
H      -4.571456   -0.324402   -0.904375
H      -3.606848   -2.833701   -1.340423
H      -1.035570   -2.886001   -0.544962
