17

C       0.038243    1.512894    0.126246
C       0.006485    0.004167   -0.034036
C       0.740067   -0.522570   -1.263780
C       0.757406   -2.053617   -1.229486
N       1.121398   -2.595422    0.075399
C       1.037457   -1.828942    1.079771
O       0.608291   -0.549732    1.165351
C       1.448273   -2.318499    2.381680
N       1.776776   -2.707083    3.418662
H       1.069677    1.876490    0.150055
H      -0.480609    1.988122   -0.711357
H      -0.455090    1.810563    1.054954
H      -1.034064   -0.348540   -0.051260
H       0.253084   -0.154799   -2.172227
H       1.765416   -0.134403   -1.259266
H      -0.225098   -2.462015   -1.501268
H       1.464498   -2.454273   -1.963084
