14

N      -0.019110    1.495378    0.013080
C      -0.001131    0.037519    0.053079
C       0.574617   -0.592657   -1.163698
N       1.006652   -1.039817   -2.138242
C       0.766309   -0.412741    1.264944
N       1.766789    0.183805    1.823301
C       2.121381   -0.653633    2.874472
C       1.297447   -1.726465    2.879030
O       0.414621   -1.581809    1.842955
H       0.925099    1.841582    0.159241
H      -0.333039    1.815273   -0.897376
H      -1.027977   -0.336133    0.146826
H       2.935502   -0.417803    3.540359
H       1.187979   -2.609120    3.484333
