18

C       0.441571    1.654885   -0.142673
C       0.094401    0.155014    0.012645
C       0.455283   -0.576670   -1.199394
C       0.792339   -1.154140   -2.199543
C       0.755657   -0.441069    1.261675
C       1.196533   -1.874351    1.311399
N       2.189449   -0.804577    1.274819
C       0.285627    0.108479    2.569234
O      -0.708305    0.776292    2.714433
H       1.521084    1.792698   -0.253272
H      -0.045891    2.063427   -1.030816
H       0.098755    2.209613    0.732033
H      -0.989125    0.077328    0.166788
H       1.061681   -1.663512   -3.092007
H       1.141927   -2.422267    2.248310
H       1.018280   -2.459904    0.415142
H       2.549610   -0.714894    0.325463
H       0.937500   -0.177998    3.423082
