19

C      -0.160447    1.509528    0.073682
C       0.089975    0.017745   -0.133733
N       0.706795   -0.581827    1.035330
C       2.132936   -0.277808    1.313310
C       2.410926   -1.773659    1.524458
O       2.025625   -2.279801    2.838004
C       0.762497   -2.648007    2.382977
N      -0.164115   -3.260807    2.957474
C       0.978472   -2.043222    1.007771
H       0.777566    2.050167    0.239825
H      -0.641289    1.944162   -0.807768
H      -0.803395    1.672669    0.942922
H      -0.862517   -0.497200   -0.304005
H       0.702694   -0.130869   -1.046314
H       2.672696    0.099856    0.430599
H       2.314427    0.386489    2.163309
H       3.337544   -2.225438    1.176873
H       0.077875   -3.489672    3.923257
H       0.693703   -2.595763    0.112072
