16

N       0.038388    1.436842    0.186055
C      -0.065258    0.049853    0.024570
C      -1.177525   -0.764681   -0.006229
N      -2.583625   -0.764746   -0.014277
C      -2.954151   -2.174317   -0.328867
C      -1.684010   -3.050162   -0.085800
N      -0.668119   -2.013144   -0.112421
N       0.668895   -2.023105   -0.129289
N       1.032121   -0.759588   -0.048961
H       1.009231    1.714500    0.096652
H      -0.516388    1.948603   -0.490666
H      -2.971955   -0.455323    0.870770
H      -3.806639   -2.496120    0.271377
H      -3.240567   -2.232215   -1.383519
H      -1.685217   -3.560818    0.883712
H      -1.529748   -3.789251   -0.873782
