19

C       0.035893    1.507899   -0.054286
C      -0.069852    0.014635    0.084342
C      -1.335188   -0.720844   -0.335321
C      -1.122881   -2.167744    0.159273
C      -0.210132   -2.037908    1.416221
C       0.577766   -3.227076    1.709035
C       1.229802   -4.207999    1.948842
C       0.610627   -0.784772    1.111974
O       1.120842   -0.741400   -0.222991
H       0.995142    1.864414    0.328684
H      -0.041583    1.804294   -1.106191
H      -0.769852    2.008000    0.493731
H      -2.197192   -0.251435    0.155332
H      -1.507584   -0.671059   -1.415376
H      -2.056012   -2.686419    0.387329
H      -0.591906   -2.746845   -0.597145
H      -0.830909   -1.803154    2.293425
H       1.810079   -5.072372    2.157051
H       1.252538   -0.358051    1.878864
