13

C      -0.187536    1.548399   -0.001522
C       0.072294    0.051135    0.016683
C       0.945233   -0.482079   -1.154081
N       2.164370   -1.016153   -0.521187
C       1.997483   -0.855865    0.724107
O       0.864149   -0.287384    1.194949
H       0.754012    2.100844   -0.081450
H      -0.813044    1.808235   -0.861979
H      -0.702782    1.868848    0.908009
H      -0.870008   -0.497893    0.109475
H       0.447451   -1.273117   -1.724212
H       1.210672    0.312186   -1.861344
H       2.707345   -1.140568    1.493274
