16

C       0.229905    1.410395   -0.046027
N      -0.017971   -0.014651   -0.026014
C      -0.115669   -0.848689   -1.148585
C      -0.561937   -2.065455   -0.799593
C       0.059467   -3.443622   -0.846062
O       0.373376   -3.288971    0.577264
C      -0.547585   -2.159857    0.699250
C      -0.093649   -0.755729    1.161857
O       0.026572   -0.303697    2.274308
H       1.136796    1.647028   -0.613882
H      -0.613568    1.952868   -0.486461
H       0.362035    1.730080    0.989084
H       0.283814   -0.502502   -2.093902
H      -0.629138   -4.283708   -0.996813
H       0.955289   -3.578582   -1.459612
H      -1.444083   -2.450965    1.258455
