18

C      -0.037016    1.429354   -0.022651
C      -0.016692   -0.025266    0.003283
C      -0.001780   -1.231258    0.022525
C       0.055272   -2.650206    0.069539
C       1.140007   -3.563786    0.637203
N       0.551480   -4.718353   -0.141795
C      -0.786653   -4.893652    0.554047
C      -1.216575   -3.549701   -0.002685
C      -0.143030   -3.668526   -1.035422
H       0.978320    1.841036   -0.045710
H      -0.562563    1.801571   -0.909341
H      -0.542229    1.841379    0.858317
H       2.127545   -3.318017    0.239991
H       1.200935   -3.722844    1.719622
H      -1.324889   -5.727607    0.095583
H      -0.722107   -5.044158    1.637271
H      -2.195078   -3.096592   -0.096043
H      -0.099110   -3.609481   -2.113326
