24

C       0.026342    1.400972   -0.014235
N       0.081027   -0.043219   -0.089638
C      -1.007539   -0.667101   -0.000828
O      -1.038723   -2.012327   -0.049034
C      -2.336330   -2.612911    0.000689
C      -2.142710   -4.120358    0.084936
C      -3.448277   -4.932038    0.014738
C      -3.132792   -6.431120   -0.077363
C      -4.384348   -4.649376    1.199630
H       0.460141    1.834604   -0.922754
H      -0.991789    1.806867    0.109074
H       0.637710    1.750330    0.825965
H      -1.993867   -0.190582    0.124789
H      -2.886424   -2.228630    0.869108
H      -2.903170   -2.346895   -0.903434
H      -1.483144   -4.416295   -0.739039
H      -1.606046   -4.356335    1.012742
H      -3.973882   -4.643397   -0.907547
H      -2.603243   -6.774916    0.819090
H      -4.049637   -7.022525   -0.168092
H      -2.500444   -6.654037   -0.942828
H      -3.892582   -4.887662    2.150501
H      -4.699276   -3.602220    1.240669
H      -5.290417   -5.260484    1.133917
