20

C      -0.146211    1.540164    0.010116
C      -0.071982    0.034949    0.002117
C      -0.031395   -0.684367   -1.191423
C       0.064892   -2.076223   -1.159898
C       0.110583   -2.890315   -2.428061
N       0.118643   -2.764515   -0.013055
C       0.077439   -2.087839    1.141199
C       0.136804   -2.914722    2.400488
C      -0.018403   -0.696380    1.187822
H       0.858644    1.979885    0.006138
H      -0.670077    1.919052   -0.871980
H      -0.659191    1.910157    0.902323
H      -0.076515   -0.166245   -2.144346
H       1.030403   -3.482709   -2.466819
H      -0.724045   -3.598195   -2.456483
H       0.063772   -2.258758   -3.318672
H       1.056396   -3.508303    2.422737
H       0.100762   -2.292142    3.297893
H      -0.698161   -3.622118    2.431340
H      -0.053091   -0.187901    2.146358
