19

O      -0.528669    1.260897    0.688450
C      -0.031739    0.080870    0.069192
C       0.817803   -0.780756    1.064358
C      -0.155720   -1.838732    1.487453
C      -1.268592   -1.837564    0.760745
C      -2.179027   -2.934601    1.209860
O      -1.468248   -3.570605    2.280958
C      -0.202240   -2.935316    2.502709
C      -1.277817   -0.777510   -0.298386
H       0.224683    1.804443    0.940435
H       0.552378    0.342364   -0.824022
H       1.704044   -1.208885    0.575840
H       1.183533   -0.157122    1.890297
H      -3.149725   -2.566467    1.578085
H      -2.392551   -3.672103    0.419428
H       0.607280   -3.673302    2.381974
H      -0.150370   -2.567274    3.539902
H      -2.168280   -0.140006   -0.290922
H      -1.194007   -1.202240   -1.307193
