14

C       0.010793    1.439183    0.008930
O       0.019048    0.014842    0.004840
C      -1.176048   -0.589391    0.012604
C      -1.379438   -1.951428    0.010760
O      -2.712673   -2.190147    0.020472
N      -3.393800   -1.002077    0.028732
C      -2.491306   -0.046707    0.024113
C      -0.429482   -3.057410    0.000665
O      -0.727968   -4.229443    0.000093
H       1.055908    1.748412    0.001765
H      -0.492700    1.832863   -0.881921
H      -0.478928    1.827799    0.909627
H      -2.811903    0.983784    0.029169
H       0.625190   -2.712979   -0.006579
