25

C      -0.100412    1.665781   -0.126993
C      -0.145979    0.135878   -0.113777
C       0.780603   -0.498094   -1.156310
C       0.776141   -2.026864   -1.142475
C       1.615693   -2.618330   -2.277236
O       1.256083   -2.423050    0.144860
C       0.978271   -3.738470    0.506365
C       2.023890   -4.814141    0.333310
C       1.698652   -4.259643    1.706895
H       0.909755    2.033583    0.085540
H      -0.397247    2.066207   -1.103241
H      -0.772915    2.091296    0.624576
H       0.131121   -0.239529    0.876428
H      -1.175794   -0.201438   -0.294413
H       0.496591   -0.161218   -2.161634
H       1.811693   -0.157382   -0.991917
H      -0.264436   -2.380039   -1.249304
H       1.601426   -3.710637   -2.255490
H       1.225343   -2.293794   -3.247323
H       2.655710   -2.285514   -2.195565
H      -0.066296   -4.024306    0.372937
H       1.705079   -5.820739    0.083729
H       2.968213   -4.511897   -0.104211
H       2.427852   -3.593856    2.154433
H       1.155350   -4.879335    2.411194
