20

C      -0.086243    1.540817    0.012758
C       0.077391    0.039132   -0.026329
C       0.715626   -0.634988   -1.267256
C      -0.401447   -1.669342   -1.023714
C      -0.009354   -2.728245    0.007322
C       0.907297   -2.087427    1.077507
C       0.600384   -0.582275    1.278724
O      -1.179695   -0.652470   -0.331249
H       0.885848    2.031695    0.129414
H      -0.550860    1.898775   -0.910218
H      -0.721151    1.838996    0.854114
H       0.539721   -0.050948   -2.172574
H       1.758815   -0.955158   -1.222229
H      -0.937397   -2.079657   -1.884239
H      -0.934987   -3.107709    0.453742
H       0.494644   -3.577414   -0.469266
H       0.833177   -2.625703    2.027028
H       1.949046   -2.192322    0.755780
H       1.496167   -0.058234    1.632826
H      -0.180488   -0.438750    2.033965
