15

C      -0.022604    1.447421    0.107809
C      -0.002192   -0.036775   -0.055961
N      -0.025649   -0.631154   -1.173270
C      -0.003609   -2.054078   -1.230625
N      -0.026397   -2.683332   -2.342529
C       0.046200   -2.746372    0.046913
C       0.067690   -2.026978    1.174443
O       0.112983   -2.527747    2.413675
O       0.044933   -0.662543    1.179046
H       0.869870    1.783623    0.645479
H      -0.059343    1.916918   -0.873729
H      -0.893081    1.753645    0.697020
H      -0.060561   -2.002324   -3.103344
H       0.065395   -3.825570    0.080981
H       0.119876   -1.793348    3.040021
