19

C      -0.162865    1.631836    0.040956
C       0.010450    0.112580   -0.032635
C      -1.370754   -0.602648   -0.050294
O      -2.176355   -0.267296    1.053904
C       0.898380   -0.377610   -1.189419
O       1.582062   -1.540302   -0.713622
C       1.890600   -1.325486    0.647979
C       0.763336   -0.445073    1.179006
O       0.469009   -0.268215    2.337814
H       0.801928    2.141554    0.125087
H      -0.664730    2.001186   -0.859909
H      -0.775630    1.898412    0.903447
H      -1.916108   -0.282706   -0.946083
H      -1.211129   -1.690072   -0.131311
H      -1.640334   -0.370311    1.852252
H       0.336424   -0.673272   -2.079685
H       1.620770    0.402126   -1.478087
H       1.949638   -2.283163    1.171537
H       2.851857   -0.797792    0.782326
