14

O       0.183128    1.218269   -0.562083
C       0.055265   -0.056432    0.035373
C       0.507777   -0.111378    1.512041
C      -0.330675   -1.212171    2.145518
O      -0.111968   -1.840454    3.143567
C      -1.576901   -1.414808    1.222182
O      -2.451345   -2.210029    1.427248
C      -1.431137   -0.443578    0.062040
H       1.120189    1.424110   -0.644689
H       0.613826   -0.810921   -0.539451
H       1.578006   -0.267748    1.665203
H       0.231841    0.839339    1.989925
H      -2.013362    0.458774    0.296932
H      -1.814042   -0.849841   -0.875354
