18

C       0.056990    1.473862   -0.054641
N      -0.090244    0.024801   -0.063792
C       0.565587   -0.676378   -1.064794
N       1.109748   -0.120539   -2.144117
N       1.545534   -1.169458   -2.856305
C       2.380649   -1.001793   -4.019628
N       1.346067   -2.364587   -2.291643
C       0.713875   -2.081077   -1.158618
N       0.322597   -3.030742   -0.207105
H       1.103360    1.806245    0.013424
H      -0.358832    1.884149   -0.978333
H      -0.503786    1.880516    0.790294
H       0.063070   -0.400103    0.841921
H       3.432251   -0.852924   -3.745148
H       2.294932   -1.897706   -4.635535
H       2.031575   -0.130411   -4.575584
H       0.542137   -3.967968   -0.523483
H      -0.669813   -2.975400   -0.001734
