13

O      -0.344010    0.078823    0.002170
C      -0.074270    1.259642    0.008469
N       1.183484    1.791144    0.001101
C       2.383067    1.078818   -0.014140
N       3.520470    1.769553   -0.017622
N       4.473785    0.813479   -0.033079
C       3.967620   -0.440617   -0.039212
C       2.594199   -0.319079   -0.027221
H      -0.842129    2.056959    0.021149
H       1.279718    2.795877    0.008086
H       5.438765    1.093606   -0.038523
H       4.606061   -1.309797   -0.051410
H       1.846906   -1.090436   -0.027392
