21

C      -0.002419   -1.206520    0.181808
C      -0.015933   -0.005673    0.129130
C      -0.000458    1.450530    0.061677
C       1.420001    2.034590   -0.072801
C       1.417905    3.564173   -0.153501
C       2.819896    4.143432   -0.222233
C       2.995561    5.666485   -0.026164
C       3.899299    5.264899    1.155972
O       3.592034    3.867312    0.974871
H      -0.000420   -2.266943    0.230852
H      -0.615123    1.782261   -0.786079
H      -0.479468    1.861993    0.960106
H       2.024915    1.720239    0.783370
H       1.896327    1.613050   -0.965877
H       0.859137    3.898707   -1.039244
H       0.907517    3.983609    0.723734
H       3.342924    3.753660   -1.108626
H       3.476974    6.206795   -0.842353
H       2.077419    6.185855    0.257458
H       4.968250    5.468912    1.012583
H       3.601851    5.625507    2.147528
