19

O       0.175071    1.363184    0.326483
C       0.012140   -0.039258    0.282527
C      -1.411162   -0.495093    0.164466
C      -2.515112    0.252573    0.229210
C      -3.761151   -0.564285   -0.058787
O      -4.227222   -0.345885   -1.388601
C      -3.260544   -2.006879    0.178204
C      -1.766067   -1.941577   -0.161601
O      -1.638976   -2.198005   -1.573012
H      -0.249378    1.728313   -0.457475
H       0.611387   -0.487637   -0.533047
H       0.451495   -0.421441    1.213832
H      -2.539970    1.325067    0.383087
H      -4.605708   -0.303678    0.585428
H      -3.520847   -0.654065   -1.971215
H      -3.382680   -2.279154    1.230861
H      -3.790541   -2.736104   -0.437849
H      -1.167399   -2.672281    0.400040
H      -0.719332   -2.067106   -1.826473
