16

N      -0.104955    1.255256    0.372616
C      -0.021640    0.031247    0.030284
N       1.164379   -0.676494   -0.175073
C       1.339896   -1.924826   -0.757325
O       2.434106   -2.441168   -0.785075
C       0.119867   -2.543199   -1.424832
C      -1.206149   -2.058761   -0.891418
N      -1.323821   -2.047341    0.567414
C      -1.264367   -0.760361   -0.168861
H       0.816687    1.688581    0.462069
H       2.026592   -0.259836    0.152546
H       0.197089   -2.308797   -2.494501
H       0.218809   -3.627707   -1.329003
H      -2.078663   -2.336133   -1.478111
H      -2.282249   -2.223125    0.856494
H      -2.156665   -0.148354   -0.226773
