17

O       0.090605    1.303342   -0.431009
C       0.039965    0.031576    0.197385
C      -1.364051   -0.510326    0.216314
C      -2.419344    0.102124    1.125831
O      -3.525303   -0.797693    1.081078
C      -3.008390   -2.114549    0.900880
C      -1.756089   -1.934553    0.061446
N      -1.869229   -1.010761   -1.076499
H      -0.242846    1.172315   -1.326445
H       0.702360   -0.690345   -0.301371
H       0.409571    0.180316    1.217978
H      -2.017910    0.199303    2.147853
H      -2.775475    1.083868    0.799822
H      -2.749455   -2.585885    1.863019
H      -3.791788   -2.711498    0.422256
H      -1.047938   -2.750816   -0.038879
H      -2.845251   -0.740693   -1.195194
