19

C       0.003835    1.512406   -0.148023
C       1.313409    0.776303    0.025042
C       2.231341    0.838082    1.215743
C       1.810741   -0.293581    2.185265
C       0.289673   -0.341118    2.391450
O      -0.454095   -0.638658    1.197499
C       0.030461    0.013562    0.078917
C       0.534260   -0.702436   -1.168614
O       1.716869    0.154835   -1.208680
H      -0.316396    2.099509    0.707114
H      -0.260117    1.923576   -1.118419
H       3.268409    0.712347    0.892331
H       2.162318    1.810968    1.714639
H       2.140056   -1.260504    1.786787
H       2.287595   -0.164892    3.162933
H       0.020207   -1.130543    3.097575
H      -0.059057    0.614677    2.815447
H       0.811655   -1.743945   -0.972864
H      -0.060468   -0.633947   -2.086270
