15

N      -0.047945   -1.164040   -0.123735
C      -0.043959   -0.009989   -0.064057
C      -0.011270    1.447740    0.017648
C       1.433254    2.001918    0.021630
C       1.443438    3.496715    0.071997
C       2.078727    4.354841    0.939188
N       1.731623    5.585329    0.493837
N       0.926525    5.513452   -0.580047
N       0.752482    4.250310   -0.835920
H      -0.558570    1.871565   -0.829851
H      -0.538661    1.762466    0.924661
H       1.984280    1.594964    0.873917
H       1.943428    1.653176   -0.882744
H       2.719254    4.199579    1.790845
H       1.992354    6.489224    0.855055
