20

C      -0.202119    1.544859   -0.119687
C      -0.015534    0.021652   -0.036019
O       0.752153   -0.202827    1.150710
C      -1.340601   -0.614813    0.094084
C      -2.421192   -1.127362    0.225416
C       0.753373   -0.534103   -1.258019
C       2.088141    0.132856   -1.527204
C       0.586580   -1.974396   -1.595913
N       0.012047   -0.927548   -2.464207
H       0.770699    2.039177   -0.097987
H      -0.724773    1.817362   -1.039677
H      -0.785669    1.889650    0.736113
H       0.871825   -1.155544    1.238665
H      -3.376106   -1.576396    0.350738
H       2.691534    0.168052   -0.615980
H       2.633502   -0.423668   -2.292672
H       1.956341    1.154103   -1.896556
H       1.423093   -2.518809   -2.025380
H      -0.098777   -2.575731   -1.005419
H      -0.989658   -0.875488   -2.284993
