20

C       0.094954    1.336297    0.205511
O      -0.091520   -0.039039   -0.032715
C       0.725578   -0.532246   -1.068972
C       0.403649   -2.012609   -1.251815
C       1.247461   -2.679990   -2.329734
C       2.640824   -3.187796   -1.976890
C       1.538024   -4.170681   -2.227602
C       1.073200   -2.152317   -3.661604
N       0.925731   -1.719532   -4.724809
H       1.129352    1.561746    0.510246
H      -0.138774    1.940146   -0.685181
H      -0.581449    1.622393    1.014435
H       0.542166    0.017857   -2.006794
H       1.793106   -0.400242   -0.820467
H       0.572459   -2.530813   -0.301997
H      -0.660375   -2.117689   -1.489264
H       3.419577   -3.087577   -2.723039
H       2.965520   -3.021681   -0.955644
H       1.098139   -4.687563   -1.382152
H       1.559420   -4.741339   -3.148109
