19

C      -0.033976    1.629965    0.191990
C       1.430252    1.172952    0.053079
O       1.110782    0.010817    0.936866
C       0.006317    0.094971   -0.051640
C      -1.111481   -0.876036   -0.252558
C      -1.533137   -0.751750   -1.709262
C      -0.876215   -0.082566   -2.663955
C       0.429651    0.676945   -2.497201
C       1.051127    0.277746   -1.162514
H      -0.328427    1.922562    1.200582
H      -0.464532    2.275068   -0.576161
H       2.352699    1.710971    0.273698
H      -0.767439   -1.897543   -0.040888
H      -1.963161   -0.686914    0.411944
H      -2.461244   -1.252931   -1.972747
H      -1.303734   -0.070179   -3.664336
H       1.099548    0.441534   -3.332685
H       0.238986    1.755624   -2.573654
H       1.707137   -0.591943   -1.247388
