14

C       0.009694    1.513032   -0.021805
C      -0.076798    0.018701    0.009962
C      -1.195047   -0.718277   -0.131575
C      -1.108036   -2.164423   -0.076224
N      -2.125971   -2.927547   -0.204239
N       0.198855   -2.729373    0.133883
N       1.224141   -2.013914    0.262481
N       1.107216   -0.663223    0.203423
H       0.667399    1.853384   -0.830095
H      -0.979839    1.944623   -0.179230
H       0.411829    1.905438    0.919495
H      -2.161052   -0.255704   -0.286332
H      -1.817716   -3.899858   -0.129815
H       1.987083   -0.187105    0.318059
