21

C      -0.164143    1.513981    0.038981
C       0.030873   -0.006783   -0.053157
O       0.860254   -0.349414   -1.166056
C       0.698469   -0.566018    1.168230
C       0.156617   -1.205399    2.206532
C      -1.263877   -1.592601    2.466657
C       1.243652   -1.538370    3.197382
O       2.447234   -1.022260    2.649985
C       2.188221   -0.441990    1.374690
H       0.796417    2.020636    0.168599
H      -0.634038    1.896301   -0.875438
H      -0.811924    1.772216    0.881895
H      -0.959065   -0.475058   -0.167983
H       0.503911    0.090216   -1.944634
H      -1.342687   -2.665818    2.681079
H      -1.663202   -1.069457    3.345130
H      -1.917842   -1.369165    1.620323
H       1.057553   -1.088061    4.187144
H       1.330172   -2.627338    3.356553
H       2.750319   -0.970326    0.591792
H       2.535295    0.603440    1.369729
