18

C       0.227141    1.704533   -0.065407
O       1.406557    1.473265   -0.863521
C       1.239156    0.036429   -0.798837
C       2.509999   -0.669303   -0.364763
C       2.998290   -0.220311    1.001375
O       2.306988   -0.834687    2.098628
C       0.983262   -0.627725    2.292257
N       0.040825   -0.212695    1.564799
C       0.036843    0.186878    0.186153
H       0.441094    2.294372    0.832380
H      -0.570605    2.187786   -0.641950
H       0.916182   -0.351498   -1.775443
H       2.360270   -1.755523   -0.371221
H       3.288681   -0.446568   -1.105314
H       4.041542   -0.503590    1.155992
H       2.920604    0.870157    1.084856
H       0.750805   -0.923549    3.316477
H      -0.890164   -0.200088   -0.245720
