19

C      -0.123559    1.582868   -0.010063
C      -0.018994    0.085853   -0.007922
C      -0.858387   -0.855899   -0.871534
O      -0.924055   -1.847914    0.186992
C      -0.227437   -0.964210    1.070985
C       1.157872   -0.687245    0.569265
C       1.983305   -1.721400   -0.187138
C       2.910744   -2.433396    0.685867
C       3.673536   -2.999609    1.422251
H       0.371140    2.017569   -0.887185
H      -1.169527    1.909832   -0.021418
H       0.351172    2.011635    0.877972
H      -1.858459   -0.458692   -1.082949
H      -0.419513   -1.252146   -1.795356
H      -0.556900   -0.921247    2.103262
H       1.736817   -0.072804    1.255515
H       1.304093   -2.442011   -0.656304
H       2.544347   -1.237107   -0.997028
H       4.345287   -3.512454    2.064628
