13

O      -0.053568   -0.088416   -0.002247
C       0.000254    1.118256    0.008278
C       1.234368    1.910066    0.001326
C       1.298984    3.302670    0.013169
N       2.646023    3.587634    0.000893
C       3.315504    2.396237   -0.018189
N       2.500378    1.373692   -0.018238
C       0.306361    4.298095    0.033674
C      -0.535230    5.160121    0.051080
H      -0.919998    1.742533    0.024532
H       3.044850    4.512938    0.005152
H       4.394554    2.348365   -0.030966
H      -1.287542    5.910094    0.065951
