17

N      -0.109564    1.334659   -0.201582
C      -0.023577   -0.046909   -0.087696
O       0.930631   -0.685799   -0.491515
N      -1.114140   -0.620208    0.559042
C      -2.556239   -0.363069    0.127504
C      -2.345318   -1.470294   -0.956648
C      -1.483930   -2.048047    0.218302
C      -2.570499   -2.286546    1.275964
C      -3.285972   -1.160622    1.217406
H       0.779219    1.763809   -0.412325
H      -0.645942    1.817917    0.503235
H      -2.853152    0.658351   -0.101574
H      -3.219366   -2.038357   -1.282535
H      -1.736865   -1.137739   -1.801761
H      -0.667110   -2.748855    0.075909
H      -2.680172   -3.160503    1.900352
H      -4.151653   -0.841808    1.778640
