19

C      -0.026341    1.542493   -0.057845
C      -0.037887    0.044462    0.095230
O       1.232649   -0.630922   -0.026857
C       0.578530   -0.642890    1.231178
C       1.266171   -0.108949    2.498722
C       0.879855   -1.417448    3.213355
C      -0.590833   -1.636339    3.159422
O      -1.454844   -0.539361    3.258779
C       0.203526   -1.941636    1.916299
H       0.801325    1.984250    0.502661
H       0.081553    1.825710   -1.110195
H      -0.964551    1.969526    0.313009
H      -0.848921   -0.471271   -0.424370
H       2.343145   -0.023470    2.338537
H       0.877638    0.813561    2.936231
H       1.512894   -1.948619    3.913138
H      -0.928952   -2.525461    3.693744
H      -2.218137   -0.710349    2.697245
H       0.230580   -2.920913    1.452972
