19

O      -0.113599    1.425903    0.020906
C       0.009507    0.003870   -0.045643
C      -1.416503   -0.538476   -0.043114
O      -2.083873   -0.063412    1.121612
C      -2.228672   -0.162317   -1.319424
C      -2.982847   -1.426302   -1.642143
C      -2.603736   -2.458843   -0.888924
C      -1.473471   -2.097073    0.036249
O      -0.253239   -2.751416   -0.325609
H       0.743262    1.797046    0.247217
H       0.547046   -0.307975   -0.950293
H       0.548091   -0.390912    0.824956
H      -1.852882    0.872879    1.182386
H      -2.895737    0.677730   -1.101278
H      -1.591228    0.153333   -2.155762
H      -3.751529   -1.464713   -2.407476
H      -2.998260   -3.467190   -0.943809
H      -1.650569   -2.373855    1.079537
H      -0.234867   -2.809319   -1.287216
