18

C       0.029106    1.408011    0.009793
O       0.020786   -0.001363   -0.009275
C       0.678026   -0.564735    1.096381
C       0.606725   -2.050590    0.972169
C       0.045567   -2.871507    0.021846
N       0.259885   -4.166818    0.380465
N       0.921658   -4.195426    1.498400
N       1.141777   -2.911709    1.873966
C       1.865047   -2.631102    3.095132
H       1.054390    1.809263   -0.009493
H      -0.500803    1.745665   -0.883050
H      -0.481238    1.805988    0.900715
H       1.731154   -0.228852    1.138974
H       0.210304   -0.231379    2.041814
H      -0.485349   -2.598920   -0.874098
H       2.781044   -2.069237    2.887446
H       1.246013   -2.059976    3.793974
H       2.123337   -3.590902    3.542159
