21

C      -0.487898    1.275888   -0.194205
C       0.222123   -0.068529   -0.124601
C       1.724471   -0.101979   -0.482972
O       2.074043   -0.641237    0.808793
C       0.694425   -0.627441    1.250412
C       0.493694    0.212035    2.514711
C       1.189932   -0.460490    3.699237
C       2.626334   -0.055247    3.950442
O       0.618257   -1.298735    4.357818
H       0.074578    2.062949    0.317720
H      -0.611859    1.585967   -1.237325
H      -1.485224    1.226616    0.255075
H      -0.354084   -0.816152   -0.675936
H       2.013857   -0.775196   -1.298378
H       2.185109    0.880252   -0.653522
H       0.345171   -1.648193    1.452863
H       0.879011    1.223453    2.354976
H      -0.576718    0.260705    2.737660
H       2.674378    1.005422    4.224938
H       3.057475   -0.660710    4.748557
H       3.195845   -0.170793    3.021737
