19

O      -0.025464    1.295996   -0.003158
C      -0.000853   -0.110073    0.041420
C      -0.504335   -0.748302    1.315632
O      -0.876994    0.094691    2.364851
C      -1.345710   -0.784836    0.068886
C      -2.691238   -0.095012   -0.180206
C      -2.947457   -1.109269   -1.335752
C      -1.744984   -1.963585   -0.837699
O      -0.814171   -2.453252   -1.771704
H       0.825249    1.614849    0.319461
H       0.799333   -0.586504   -0.524030
H      -0.042556   -1.664160    1.674574
H      -0.863743    0.991709    2.003476
H      -3.378430   -0.209253    0.662280
H      -2.651262    0.959206   -0.460454
H      -3.923358   -1.597711   -1.376862
H      -2.735343   -0.673777   -2.317663
H      -2.062343   -2.835662   -0.257042
H      -0.554085   -1.718060   -2.337844
