21

C      -0.127806    1.482964    0.142059
C       0.047439   -0.028505   -0.080058
C       0.829586   -0.291471   -1.353591
O       0.549206   -1.114483   -2.187300
C       0.807423   -0.650277    1.098991
O       0.190613   -0.352429    2.370626
C       0.319087   -1.726823    2.797886
C       0.746855   -2.179557    1.383731
C      -0.279336   -3.016649    0.627911
H       0.840776    1.995883    0.156629
H      -0.736585    1.929991   -0.649167
H      -0.616220    1.658302    1.102622
H      -0.928180   -0.510795   -0.181458
H       1.735916    0.350065   -1.470689
H       1.843782   -0.274221    1.089324
H       1.085168   -1.837573    3.576135
H      -0.631105   -2.128314    3.169340
H       1.727006   -2.661094    1.342215
H      -1.289644   -2.610201    0.742357
H      -0.055983   -3.062272   -0.441383
H      -0.290748   -4.038921    1.020580
