15

N      -0.074169    1.188996    0.919443
C      -0.081946    0.097803    0.300238
C      -1.175447   -0.710709   -0.395689
C      -0.042871   -1.741380   -0.748281
C       0.229779   -1.931505   -2.224277
O       1.219096   -1.540261   -2.783533
N       0.896768   -0.869327   -0.040241
C       2.261945   -0.869432    0.103528
O       2.865279    0.007319    0.678368
H       0.868938    1.414806    1.239969
H      -1.960607   -1.089697    0.258879
H      -1.624119   -0.208642   -1.255175
H      -0.186386   -2.724605   -0.282284
H      -0.576376   -2.477090   -2.763480
H       2.739806   -1.753931   -0.352583
