18

C      -0.067055    1.611907   -0.226379
C       0.055433    0.091627   -0.025703
C       0.750258   -0.594438   -1.150490
N       1.878759   -1.229218   -1.143515
C       2.056820   -1.649730   -2.458221
C       1.004788   -1.240567   -3.206620
C       0.622803   -1.395984   -4.642366
O       1.345080   -2.442666   -5.261825
O       0.150950   -0.561657   -2.376921
H       0.920404    2.075860   -0.305540
H      -0.624763    1.842115   -1.138303
H      -0.591737    2.066826    0.618450
H       0.622472   -0.134236    0.880393
H      -0.944722   -0.341984    0.097229
H       2.925768   -2.206556   -2.768656
H      -0.467883   -1.533779   -4.715289
H       0.863788   -0.491044   -5.213469
H       1.164247   -3.250278   -4.768464
