14

C      -0.019076    1.577375    0.068852
C       0.081040    0.082472    0.019347
C      -0.839307   -0.877297    0.787850
C       0.643005   -0.943374    0.990967
N       1.303178   -1.637718   -0.119312
C       0.741222   -0.759631   -1.071015
O       0.797063   -0.736944   -2.267456
H       0.951847    2.046565   -0.119017
H      -0.718193    1.942358   -0.690797
H      -0.378635    1.918161    1.044654
H      -1.420864   -0.400003    1.572793
H      -1.352199   -1.685893    0.274370
H       1.161367   -0.775339    1.925756
H       1.287927   -2.645712   -0.234564
