20

C      -0.044628    1.515929   -0.032360
C       0.004352    0.002098   -0.080424
O       0.891446   -0.376823   -1.083133
C       0.811652   -1.749361   -1.433669
C       1.406718   -2.665383   -0.368968
N       0.704433   -2.767794    0.899002
C       0.323090   -1.764453    1.566588
C      -0.232223   -1.916731    2.955148
O       0.391759   -0.432236    1.227291
H       0.955236    1.905353    0.174483
H      -0.384656    1.905021   -0.994467
H      -0.725300    1.847342    0.754234
H      -0.988248   -0.434504   -0.286034
H      -0.235882   -2.027713   -1.630571
H       1.376579   -1.857057   -2.364759
H       1.474554   -3.674145   -0.793628
H       2.436466   -2.332425   -0.174771
H      -0.198744   -2.961562    3.260612
H       0.351620   -1.307827    3.653493
H      -1.262924   -1.548687    2.998157
