19

O      -1.347205    0.907656    1.485053
C      -0.484671    0.198389    0.655343
C      -0.596888   -1.298053    0.484926
C      -0.945326   -0.362703   -0.666915
C      -2.365531   -0.148309   -1.156934
N      -3.369394   -0.374538   -0.105518
C      -4.715100    0.004209   -0.534567
C      -5.707038   -0.324402    0.491778
N      -6.490998   -0.604835    1.291880
H      -2.247648    0.602699    1.283784
H       0.513167    0.623737    0.700616
H       0.301110   -1.901118    0.402092
H      -1.401938   -1.783512    1.027805
H      -0.226530   -0.331775   -1.481511
H      -2.473983    0.894555   -1.484237
H      -2.559142   -0.777290   -2.043180
H      -3.371071   -1.356457    0.153471
H      -4.738419    1.085986   -0.710937
H      -5.026204   -0.476605   -1.478407
