19

C      -0.419650    1.423937   -0.149555
N      -0.394601   -0.029135   -0.207951
C       0.536341   -0.579223   -0.852731
N       1.677183   -0.148018   -1.560375
C       1.980061   -1.498034   -2.107009
C       3.408945   -1.972000   -1.911342
C       0.872628   -2.018431   -1.162909
C       0.777036   -3.219588   -0.334228
O      -0.057239   -3.024166   -1.485439
H       0.575194    1.888999   -0.223175
H      -1.045501    1.830853   -0.955451
H      -0.871796    1.739081    0.795533
H       1.710676    0.694104   -2.116695
H       1.666373   -1.611585   -3.152532
H       3.706997   -1.878712   -0.863193
H       3.508847   -3.019551   -2.215033
H       4.103991   -1.382586   -2.518307
H       1.527448   -4.003027   -0.429322
H       0.266697   -3.158629    0.624891
