15

N       0.057946    1.102149    0.767034
C       0.111695   -0.083433    0.364956
C      -0.954273   -1.167708    0.098081
C       0.248378   -2.106953   -0.284191
N       1.142980   -0.964474   -0.035939
C       2.496446   -0.788475   -0.121951
O       3.058417    0.249712    0.146470
C      -1.784381   -1.578061    1.209060
C      -2.464095   -1.933462    2.133446
H       0.992163    1.513083    0.809002
H      -1.564892   -0.909918   -0.772535
H       0.396879   -2.940843    0.404621
H       0.250314   -2.458849   -1.318419
H       3.020662   -1.701180   -0.465797
H      -3.069192   -2.232615    2.953494
