25

C       1.020950   -0.297809    1.276457
C       0.157384    0.105962    0.077485
C       0.749508   -0.322257   -1.274796
C       0.870268   -1.857218   -1.455817
C       0.622293   -2.138154   -2.959807
C      -0.115403   -3.453321   -3.234821
C      -0.118845   -0.894385   -3.392791
C      -0.062459    0.092525   -2.496440
C      -0.631560    1.469750   -2.647110
H       1.137658   -1.384515    1.340422
H       2.023875    0.138245    1.203391
H       0.577256    0.043742    2.216884
H      -0.845761   -0.330038    0.180118
H       0.021731    1.194580    0.086099
H       1.747862    0.141573   -1.353723
H       1.823159   -2.259936   -1.101418
H       0.077818   -2.344206   -0.871871
H       1.586945   -2.180694   -3.490894
H      -1.093825   -3.461224   -2.741549
H      -0.279641   -3.601392   -4.307746
H       0.456054   -4.311613   -2.864741
H      -0.602789   -0.817775   -4.362601
H      -1.119151    1.595767   -3.617715
H      -1.369564    1.692895   -1.867104
H       0.151707    2.234609   -2.559702
