12

N       0.046422    1.310339    0.138895
C      -0.059569   -0.032216    0.052729
N      -1.149052   -0.740558    0.021517
C      -0.658286   -2.039394   -0.005167
N      -1.144107   -3.254882   -0.042424
O       0.019246   -4.058867   -0.056999
C       1.148456   -3.297772   -0.028575
C       0.753505   -2.012167    0.005208
O       1.157164   -0.703369    0.043139
H       0.922077    1.728779   -0.128104
H      -0.792472    1.832835   -0.053273
H       2.082866   -3.832081   -0.036722
