20

C      -0.140249    1.493053    0.030393
C       0.027793   -0.021259   -0.009679
C       0.869732   -0.589941   -1.197870
C       2.131938   -0.416664   -0.299681
C       1.152245   -0.616707    0.889210
O       0.879940   -1.990334    1.140223
C       0.968938   -2.811827   -0.023101
C       0.547118   -2.088318   -1.323314
H       0.806803    2.024493   -0.108102
H      -0.821849    1.829223   -0.758793
H      -0.560461    1.813808    0.990129
H      -0.941013   -0.509423    0.142433
H       0.828171   -0.070321   -2.159045
H       2.964648   -1.115136   -0.410258
H       2.523742    0.601301   -0.323923
H       1.367594   -0.157893    1.857630
H       2.001767   -3.172446   -0.131605
H       0.343255   -3.687755    0.170876
H      -0.524829   -2.213446   -1.515756
H       1.082109   -2.542257   -2.165783
