15

O       0.078772    1.333076    0.271061
C      -0.054647    0.061103   -0.325582
C      -1.339108   -0.613402    0.094779
C      -1.501034   -2.108299    0.134779
N      -1.306758   -1.340525    1.351451
C      -2.182808   -1.163594    2.394902
O      -2.516208   -0.095826    2.850213
C      -2.628445   -2.435993    2.994428
N      -3.013588   -3.420000    3.462115
H       0.005918    1.221670    1.226123
H      -0.063921    0.227389   -1.407887
H       0.793291   -0.601575   -0.092289
H      -2.239575   -0.026016   -0.076217
H      -2.489678   -2.518775   -0.051937
H      -0.671193   -2.749879   -0.147423
