17

C      -0.302336    1.523247   -0.039119
C       0.086846    0.064486   -0.008936
C      -0.982227   -1.021130    0.274678
O      -0.084261   -1.756618    1.143071
C       0.914199   -0.713459    1.070938
C       1.992197   -1.117566    0.032720
O       2.377287   -2.452628   -0.020657
C       1.072937   -0.488845   -1.066094
O       1.095799   -0.440108   -2.260188
H       0.577732    2.173747   -0.025118
H      -0.858562    1.744722   -0.956253
H      -0.934127    1.785710    0.815555
H      -1.842762   -0.636170    0.836541
H      -1.337315   -1.617719   -0.572168
H       1.210286   -0.332877    2.049719
H       2.892895   -0.495173    0.128302
H       1.576725   -2.962497    0.168776
