15

N      -0.009093    1.261184    0.093363
C       0.001996   -0.085264   -0.028333
N      -1.016216   -0.892356   -0.030632
C      -0.325435   -2.212609   -0.022685
C       0.837780   -2.021898   -1.037419
C       1.275800   -0.897521   -0.022203
O       2.477470   -0.220986   -0.008004
C       0.766985   -1.945295    1.058761
O       1.172269   -2.352201    2.098208
H       0.822222    1.765011   -0.166957
H      -0.893044    1.736597    0.005574
H      -0.984531   -3.074704   -0.024063
H       1.540990   -2.858360   -1.093009
H       0.537188   -1.668503   -2.026073
H       3.087373   -0.688222    0.574629
