18

C      -0.138095    1.569450    0.072013
C       0.082893    0.062644    0.024618
C       1.167154   -0.518863   -0.947899
C       1.827337   -1.242611    0.225920
C       2.232964   -0.256718    1.301046
C       0.792492   -0.611306    1.213308
C       2.274957   -2.635555    0.233414
O       2.304186   -3.355858   -0.738020
H       0.795091    2.111140    0.258263
H      -0.545764    1.930644   -0.878309
H      -0.844870    1.840278    0.863916
H      -0.871520   -0.439772   -0.157840
H       0.763441   -1.209095   -1.689559
H       1.800134    0.215949   -1.455600
H       2.765903   -0.684551    2.145213
H       2.599839    0.718329    0.991495
H       0.292266   -1.119048    2.030112
H       2.582390   -3.009381    1.239165
