18

O      -0.033730   -0.056189    0.192983
C      -0.027049    1.133570   -0.008700
C      -1.324996    1.944739   -0.079420
O      -1.302712    2.953653   -1.073105
C      -0.205640    3.841532   -0.933426
C       1.105248    3.104765   -1.116648
C       1.704191    3.041073   -2.472114
N       2.331862    3.855682   -1.409631
C       1.253651    1.949574   -0.139442
H      -2.153055    1.272709   -0.310805
H      -1.502289    2.383450    0.920720
H      -0.333384    4.614505   -1.697468
H      -0.232447    4.328953    0.057724
H       2.277330    2.167732   -2.770366
H       1.189644    3.545119   -3.286017
H       2.119094    4.840844   -1.555488
H       1.462195    2.362554    0.859652
H       2.084792    1.288640   -0.393070
