19

C       0.018169    1.554704    0.101774
N       0.023349    0.111446    0.185215
C      -1.022317   -0.589633    0.973087
C      -1.675186   -1.746929    0.188171
C      -0.440830   -2.641963    0.532296
C       0.079221   -1.553320    1.515869
C       1.106806   -0.541479    0.943831
C       2.228383   -1.039886    0.143342
N       3.110187   -1.447965   -0.482886
H       0.883173    1.892578   -0.478179
H      -0.884182    1.887069   -0.420671
H       0.049506    2.053410    1.088698
H      -1.635315    0.058882    1.607398
H      -2.593595   -2.105419    0.662159
H      -1.867346   -1.548203   -0.868021
H      -0.682352   -3.594421    1.007463
H       0.233325   -2.836078   -0.304592
H       0.197607   -1.829720    2.561051
H       1.512695    0.093394    1.748820
