15

O       0.009499    0.051254    0.158040
C       0.001291    1.225860   -0.021447
O      -1.054365    2.025225   -0.374258
C      -0.202704    3.213645   -0.475559
C       1.015126    2.390859    0.004602
C       1.669127    2.739744    1.382758
N       3.121650    2.652088    1.189569
C       3.303813    2.361332   -0.035177
N       2.179631    2.289164   -0.854576
H      -0.148960    3.569227   -1.506408
H      -0.554732    4.001224    0.194298
H       1.391452    3.751595    1.698786
H       1.355027    2.049788    2.172084
H       4.282537    2.215982   -0.482498
H       2.170896    1.620814   -1.612169
