15

C      -0.056673    1.523377    0.082090
C       0.005968    0.036332    0.003773
C       0.013446   -0.797729   -1.095524
O      -0.090819   -0.457483   -2.432251
C       0.066009   -2.144898   -0.641801
O       0.078160   -3.243904   -1.446284
C       0.101025   -2.116591    0.730231
N       0.070846   -0.783095    1.102770
H       0.864438    1.966960    0.482168
H      -0.213703    1.928449   -0.920824
H      -0.886167    1.869315    0.711020
H       0.769665   -0.162179   -2.748449
H      -0.052931   -2.918273   -2.345365
H       0.143340   -2.910716    1.455202
H       0.075494   -0.459780    2.053063
