18

C      -0.215653    1.508359    0.205883
N       0.051387    0.087714    0.075929
C       0.983044   -0.370255   -0.997430
C       1.807521   -1.100756    0.062595
C       2.315097   -0.144124    1.108729
C       0.855507   -0.571309    1.102695
O       2.264832   -2.409664   -0.093814
C       3.580618   -2.573708   -0.380509
O       4.061041   -3.648094   -0.570011
H       0.688004    2.133118    0.319145
H      -0.759859    1.856794   -0.677460
H      -0.853256    1.675625    1.079812
H       0.489008   -1.038591   -1.709341
H       1.505656    0.426533   -1.543067
H       2.900713   -0.606894    1.897322
H       2.622506    0.864001    0.844521
H       0.394955   -1.062459    1.952428
H       4.131198   -1.616063   -0.406395
