21

O       0.067604    1.417868   -0.092730
C       0.060252    0.016515    0.066085
C      -1.366101   -0.535178   -0.011167
O      -1.984323   -0.050161   -1.211973
C      -1.440732   -2.047995    0.092814
C      -1.136348   -2.721541    1.463338
C      -2.287120   -3.720525    1.163693
O      -3.103289   -4.194119    2.201177
C      -2.844059   -2.716071    0.120521
H      -0.579530    1.595796   -0.788246
H       0.677727   -0.481828   -0.705365
H       0.510052   -0.210171    1.038877
H      -1.955581   -0.080250    0.794833
H      -1.601534   -0.534270   -1.953592
H      -0.819125   -2.497228   -0.693431
H      -0.135743   -3.118632    1.646574
H      -1.408856   -2.056898    2.292445
H      -1.897475   -4.615509    0.668934
H      -3.488240   -3.433366    2.649190
H      -3.580402   -2.044829    0.578278
H      -3.261526   -3.108381   -0.808900
