18

C      -0.179065    1.516130   -0.018647
C       0.127102    0.028564   -0.002322
N       1.294461   -0.413703   -0.845484
C       1.820936   -1.220918    0.254266
C       2.203794   -0.289305    1.388843
C       0.758228   -0.598581    1.244073
O      -0.021340   -1.156806    2.226421
C       2.228526   -2.607481    0.104217
O       2.143028   -3.218678   -0.940932
H       0.709990    2.103492    0.227677
H      -0.521599    1.826506   -1.010743
H      -0.969023    1.751679    0.702488
H      -0.771324   -0.551757   -0.244340
H       1.008159   -1.026247   -1.604538
H       2.680026   -0.784529    2.232700
H       2.621170    0.679358    1.124795
H       0.343800   -0.930708    3.088126
H       2.604872   -3.087592    1.034142
