25

C       0.635877    0.281207    1.160376
C      -0.184365    0.137801   -0.131600
C      -0.914477    1.447493   -0.474130
C       0.667392   -0.362663   -1.303045
C       1.849949    0.510703   -1.694412
C       0.866102   -1.864188   -1.512163
C       0.289108   -2.934923   -0.609513
C      -0.030566   -1.065575   -2.440969
O      -1.422518   -1.204065   -2.345955
H       1.160645   -0.646647    1.409806
H       1.384765    1.076486    1.078993
H      -0.016849    0.535055    2.002328
H      -0.960444   -0.609956    0.049897
H      -0.214921    2.273093   -0.644874
H      -1.528612    1.325497   -1.370239
H      -1.571475    1.745257    0.350232
H       2.596349    0.559775   -0.894380
H       2.352074    0.111472   -2.581352
H       1.540422    1.534781   -1.928430
H       1.835235   -2.129154   -1.930209
H      -0.759691   -2.746935   -0.370260
H       0.342685   -3.914262   -1.099524
H       0.842388   -3.013323    0.332346
H       0.325066   -0.862100   -3.451991
H      -1.667396   -2.046744   -2.742535
