15

N       0.168121    1.341840    0.500329
C      -0.025395   -0.013024    0.038990
C      -1.489739   -0.420710   -0.135761
O      -2.189584    0.667731   -0.718778
C      -1.401296   -1.538663   -1.184149
O      -2.218382   -2.358297   -1.469215
O      -0.210434   -1.412986   -1.869496
C       0.563175   -0.394829   -1.316287
N       1.586215    0.094661   -1.849428
H       1.144447    1.592566    0.371662
H      -0.374021    1.966703   -0.088904
H       0.418605   -0.707295    0.767551
H      -1.968120   -0.773134    0.782731
H      -3.094479    0.385949   -0.893103
H       1.788968   -0.333044   -2.753802
