20

O      -0.072665    1.446596    0.104474
C       0.036592    0.041967   -0.064129
C      -1.294879   -0.637324    0.075584
C      -1.777672   -1.688261   -0.835722
N      -2.394157   -0.351243   -0.962495
C      -3.353533   -0.135815    0.198844
C      -4.170466   -1.323477    0.776729
C      -3.052418   -1.560522    1.847163
C      -2.250655   -0.365764    1.255398
H      -0.728260    1.740056   -0.539782
H       0.477929   -0.212970   -1.040279
H       0.726423   -0.306215    0.713916
H      -1.152474   -1.927248   -1.691617
H      -2.356391   -2.531114   -0.472925
H      -3.870387    0.814810    0.067711
H      -5.119042   -0.997313    1.210245
H      -4.383542   -2.145959    0.089094
H      -3.392378   -1.384319    2.870157
H      -2.551039   -2.532097    1.818910
H      -1.912299    0.422891    1.924649
