13

O       0.089381    1.383422   -0.127768
C       0.071010    0.035187   -0.015127
C       0.037420   -0.878199   -1.039493
N       0.014988   -0.643952   -2.390533
C      -0.018540   -1.554940   -3.434882
N      -0.033950   -2.810335   -3.263986
O       0.029587   -2.091443   -0.503141
N       0.058531   -1.908679    0.924183
N       0.082890   -0.657201    1.143659
H       0.112140    1.754209    0.762108
H       0.024862    0.333715   -2.635124
H      -0.029136   -1.028182   -4.395999
H      -0.058270   -3.288933   -4.161389
