16

O       0.056997    1.403800   -0.025046
C       0.014985    0.001670   -0.020624
C       0.705192   -0.579799   -1.184080
C       1.279780   -1.032761   -2.138356
C       0.681181   -0.514213    1.279501
O       1.384298    0.235505    1.925637
N       0.342185   -1.780533    1.678734
C       0.524594   -3.043040    0.987213
C       1.231835   -2.743330    2.279487
H       0.747643    1.629982    0.620918
H      -1.032990   -0.325635   -0.027038
H       1.780054   -1.418869   -2.992379
H      -0.335854   -3.706087    0.986435
H       1.107013   -3.032549    0.072034
H       2.294611   -2.521356    2.242507
H       0.882841   -3.199915    3.200761
