19

C      -0.074924    1.533933    0.039299
C       0.010837    0.025269    0.005066
C       0.755756   -0.693215   -1.159687
C      -0.328654   -1.774550   -0.963587
C       0.084502   -2.706907    0.164870
O       0.523078   -1.970258    1.321463
C       0.489441   -0.599791    1.302412
N       0.828397    0.082681    2.312148
N      -1.224013   -0.700666   -0.455901
H       0.908121    1.972170    0.228202
H      -0.459251    1.896504   -0.917693
H      -0.740317    1.868051    0.839569
H       0.629819   -0.148733   -2.096012
H       1.799991   -0.972760   -1.010900
H      -0.698007   -2.336112   -1.827061
H      -0.756749   -3.337499    0.480631
H       0.908332   -3.363605   -0.140163
H       1.107254   -0.534107    3.078563
H      -1.848864   -0.989331    0.296553
