14

C      -0.137032    1.618320   -0.026025
C       0.030706    0.099618   -0.028124
C       0.946615   -0.439943   -1.185633
N       2.112176   -1.015736   -0.509690
C       1.899995   -0.890778    0.729888
O       0.758942   -0.295209    1.169335
C      -1.276371   -0.573270    0.000215
N      -2.309400   -1.090113   -0.015977
H       0.850539    2.086975   -0.038982
H      -0.692200    1.936977   -0.912616
H      -0.676812    1.947661    0.864329
H       0.445355   -1.200811   -1.789331
H       1.252694    0.372098   -1.852428
H       2.560657   -1.218309    1.524231
