14

C      -0.020041    1.472592    0.028262
C      -0.003294   -0.016450   -0.035408
N      -0.051913   -0.741014   -1.125523
C      -0.008729   -2.041191   -0.669955
C       0.066432   -2.084029    0.708538
N       0.102173   -3.387405    1.026268
N       0.048813   -4.129391   -0.151605
N      -0.017051   -3.311836   -1.156851
N       0.071395   -0.789292    1.140475
H       0.891115    1.869646    0.490724
H      -0.090716    1.860750   -0.988000
H      -0.874894    1.844985    0.604588
H       0.156187   -3.874633    1.903671
H       0.116911   -0.435137    2.080104
