21

C      -0.031792    1.617339    0.189573
C       1.463858    1.236802    0.038502
C       1.170537    0.051399    1.022715
C      -0.006289    0.060614    0.004778
C      -1.168638   -0.838681   -0.319572
C      -1.629005   -0.461667   -1.747826
O      -0.570374   -0.446637   -2.696170
C       0.420552    0.558206   -2.451050
C       1.064684    0.251353   -1.106864
H      -0.342794    1.972456    1.176312
H      -0.482522    2.226211   -0.594558
H       2.320813    1.911080    0.073703
H       1.849001   -0.805464    0.975716
H       0.940957    0.326792    2.056226
H      -0.845887   -1.886763   -0.307914
H      -2.007037   -0.737382    0.379897
H      -2.352460   -1.190193   -2.124536
H      -2.125628    0.522797   -1.723503
H       1.128158    0.479898   -3.281233
H      -0.036935    1.557126   -2.495109
H       1.740808   -0.604564   -1.212385
