19

C      -0.071213    1.439732    0.505789
C       0.008814    0.022727    0.201274
C       0.082493   -1.155469   -0.050147
C       0.100480   -2.562743   -0.365744
O      -0.890104   -3.147144   -0.757458
C       1.424852   -3.329711   -0.172871
C       1.218545   -4.337860    0.970202
C       1.774159   -4.038012   -1.489857
O       2.419530   -2.372641    0.170797
H       0.910462    1.851644    0.761358
H      -0.465671    1.999734   -0.349166
H      -0.744762    1.615273    1.351987
H       0.383744   -5.006296    0.746812
H       2.122887   -4.942451    1.104936
H       1.011827   -3.813057    1.907233
H       1.982135   -3.301723   -2.271189
H       2.664616   -4.662881   -1.357042
H       0.946242   -4.672297   -1.813588
H       3.242408   -2.848911    0.321924
