16

O      -0.581272    0.527054    0.646128
C       0.227091    0.843474   -0.189148
C       1.299593    1.893996    0.023581
C       1.337143    2.929103   -1.102632
C       2.544197    3.881945   -1.200095
N       3.712386    3.027077   -1.414330
C       2.873674    3.439533   -2.598146
C       1.697677    2.489395   -2.563724
O       1.154685    1.789728   -3.366565
H       0.237038    0.366157   -1.192754
H       1.131018    2.366280    0.996363
H       2.272091    1.385105    0.049789
H       0.394843    3.487834   -1.161563
H       2.623778    4.877941   -0.785045
H       4.543742    3.617507   -1.441967
H       3.316461    3.969790   -3.431092
