17

C      -0.061462    1.630464    0.075042
C       0.025711    0.114649    0.020527
C       0.722843   -0.547514   -1.225402
C       1.232888    0.333609   -2.254698
N       1.638428    1.050290   -3.066368
C       1.760350   -1.099389   -0.180955
O       2.734987   -1.795380   -0.227032
N       1.085083   -0.494732    0.839151
C       1.283401   -0.556553    2.265742
H       0.903724    2.090518   -0.152721
H      -0.795686    1.995143   -0.649104
H      -0.379520    1.959234    1.069455
H      -0.955758   -0.335246    0.216547
H       0.137533   -1.353443   -1.674535
H       2.187582   -1.141278    2.448673
H       1.416344    0.442474    2.694866
H       0.438090   -1.044289    2.766359
