20

C       0.004913    1.531825    0.007914
C       1.525368    1.799786   -0.003858
C       2.074189    1.488830    1.414717
C       1.805252    0.021814    1.823718
C       0.404242   -0.494645    1.420992
C      -0.000095   -0.012087    0.001872
C       1.122036   -0.283982   -0.994446
C       1.981380    0.736709   -0.997676
H      -0.503585    1.962690    0.876963
H      -0.463174    1.923045   -0.900813
H       1.787772    2.820821   -0.296753
H       3.151007    1.687691    1.467671
H       1.595598    2.176559    2.123638
H       2.556625   -0.612309    1.343309
H       1.950329   -0.096916    2.902968
H       0.391930   -1.589396    1.478041
H      -0.352763   -0.137599    2.130956
H      -0.962396   -0.445699   -0.286424
H       1.229977   -1.215068   -1.539533
H       2.915538    0.786967   -1.545868
