18

N      -0.020600   -1.187143   -0.096506
C      -0.011499   -0.035786    0.001883
C       0.019903    1.420446    0.118191
C       1.422504    2.007333   -0.141144
C       1.439554    3.526651   -0.025862
C       1.239468    4.190136    1.393722
C       2.624099    4.829676    1.234149
O       3.562101    3.761354    1.058271
C       2.821557    4.205949   -0.083128
H      -0.705183    1.838607   -0.590373
H      -0.328362    1.695197    1.120607
H       2.135641    1.585357    0.572820
H       1.754687    1.707136   -1.141667
H       0.755963    3.979919   -0.752233
H       0.419751    4.911698    1.409702
H       1.147993    3.512671    2.247130
H       3.003221    5.759317    1.641407
H       3.389934    4.524886   -0.949485
