13

N       0.079280    1.383172    0.159130
C       0.013639   -0.002921    0.044574
C      -1.069932   -0.827164    0.021622
O      -0.667075   -2.140848   -0.026204
C       0.674770   -2.148853   -0.033487
C       1.172283   -0.874233    0.005652
C       2.518421   -0.451495   -0.001563
C       3.649496   -0.035187   -0.017015
H       0.951886    1.759596   -0.187799
H      -0.707180    1.871615   -0.245312
H      -2.132783   -0.660350    0.038989
H       1.155298   -3.112121   -0.073589
H       4.653439    0.309975   -0.019515
