19

C      -0.398645    1.427846   -0.043047
C       0.071372   -0.018626   -0.076664
C       1.415558   -0.343865   -0.756720
O       1.877046   -1.084366    0.387274
C       0.719423   -0.684357    1.182509
C       1.154674    0.250748    2.305908
C      -0.008772   -1.908381    1.719947
H       0.385368    2.105996    0.307392
H      -0.694499    1.756930   -1.045325
H      -1.268278    1.551923    0.611382
H      -0.732755   -0.653416   -0.461418
H       1.379472   -0.961325   -1.662131
H       2.044765    0.535674   -0.957771
H       1.721994    1.101486    1.920387
H       0.292561    0.632560    2.863351
H       1.799224   -0.291731    3.004864
H       0.622859   -2.449567    2.432190
H      -0.930943   -1.616600    2.235246
H      -0.266536   -2.591662    0.905889
