17

N      -0.137335    1.321080    0.147904
C      -0.042528   -0.064908    0.159876
O       1.015720   -0.665255    0.121543
N      -1.257382   -0.708883    0.185150
C      -2.542861   -0.271631   -0.376910
C      -2.852888   -1.762948   -0.745945
C      -1.427335   -2.114292   -0.191296
C      -3.981201   -2.372067   -0.074793
C      -4.913507   -2.874371    0.494335
H       0.742367    1.770530    0.352914
H      -0.931543    1.739389    0.608948
H      -3.231056    0.168145    0.352044
H      -2.445384    0.397990   -1.238514
H      -2.927617   -1.914683   -1.825151
H      -0.708233   -2.449619   -0.944039
H      -1.420570   -2.807936    0.653030
H      -5.737991   -3.322816    0.991142
