15

N      -0.090776    1.293628    0.020938
C      -0.025106    0.029132    0.000493
C      -1.237261   -0.889937    0.037164
C      -0.651645   -2.291135    0.073841
C      -1.232196   -3.476748    0.719535
O      -1.237028   -3.332692   -0.698617
C       0.857418   -2.155071   -0.026293
O       1.681771   -3.032109   -0.063152
N       1.106300   -0.791193   -0.055308
H       0.833186    1.728109   -0.010876
H      -1.863708   -0.650080    0.898948
H      -1.840998   -0.746608   -0.863209
H      -0.564698   -4.245078    1.104335
H      -2.201862   -3.384325    1.206694
H       2.049968   -0.434066   -0.101833
