18

C      -0.049975    1.414632    0.355399
C      -0.005996   -0.070836    0.119489
C       0.800186   -0.893855   -0.942102
C       2.032268   -1.056761   -0.049859
C       0.820386   -1.167944    0.878081
N       0.048253   -2.016625   -0.174917
C      -1.154507   -1.064768   -0.040466
C      -2.054261   -1.387493    1.122696
O      -2.051995   -0.784105    2.168278
H       0.958320    1.835770    0.431385
H      -0.566799    1.927879   -0.463129
H      -0.585043    1.631779    1.284358
H       0.718771   -0.834336   -2.029722
H       2.614291   -1.970434   -0.194685
H       2.674935   -0.182384    0.075137
H       0.770765   -1.421282    1.936741
H      -1.741090   -1.029000   -0.969780
H      -2.731827   -2.256423    0.961702
