18

C      -0.001416    1.496209   -0.012704
C       0.014309    0.041558   -0.008933
C       0.030316   -1.165533   -0.005682
C       0.025696   -2.581067   -0.002690
C       1.133910   -3.408338    0.040766
N       0.691670   -4.703420    0.026887
C      -0.685518   -4.743404   -0.024812
C      -1.436809   -6.033074   -0.049937
C      -1.122392   -3.441653   -0.044002
H       1.014972    1.904376   -0.053579
H      -0.547709    1.891197   -0.877456
H      -0.479540    1.897818    0.888718
H       2.183453   -3.167586    0.079626
H       1.287398   -5.512924    0.050984
H      -1.249159   -6.640379    0.844603
H      -2.510049   -5.835384   -0.094048
H      -1.177832   -6.647355   -0.921595
H      -2.151103   -3.118428   -0.083392
