21

C      -0.477837    1.478100    0.038179
C       0.016649    0.037689    0.011258
O      -1.096908   -0.864940   -0.048271
C       1.021395   -0.298381   -1.105237
C       1.596039   -1.676146   -0.698377
C       1.524863   -1.711624    0.853741
C       0.800520   -0.423272    1.244866
C       1.321894    0.501872    2.260325
O       0.187282   -0.331302    2.521861
H       0.348430    2.195057    0.032173
H      -1.097238    1.682062   -0.842793
H      -1.090051    1.644986    0.929209
H      -1.567611   -0.691037   -0.870457
H       0.550426   -0.302929   -2.094263
H       1.810631    0.462811   -1.125047
H       0.981139   -2.473863   -1.119999
H       2.612724   -1.817284   -1.073025
H       0.945127   -2.567915    1.206809
H       2.512257   -1.770979    1.319087
H       2.232054    0.234197    2.796815
H       1.113292    1.568658    2.211115
