14

C      -0.034375    1.484890   -0.029349
C      -0.003622   -0.010329   -0.049357
N      -0.024163   -0.658276   -1.168439
C       0.004999   -2.026311   -1.141335
O      -0.020994   -2.587389   -2.376857
C       0.054482   -2.710586    0.021714
O       0.077227   -2.056674    1.212992
C       0.050746   -0.683135    1.270230
O       0.070730   -0.128849    2.338136
H       0.847074    1.875853    0.490105
H      -0.070464    1.870099   -1.048365
H      -0.902041    1.839131    0.537613
H       0.001154   -3.547186   -2.296567
H       0.080150   -3.786729    0.135242
