12

O      -0.038699    1.454443   -0.054080
C       0.063292    0.034467   -0.117072
C      -1.428883   -0.429785   -0.120356
O      -1.858514   -1.344652   -0.754634
C       0.779277   -0.425103   -1.307545
C       1.371809   -0.769912   -2.292792
C       0.661025   -0.516075    1.108125
C       1.108141   -0.947247    2.136909
H       0.852351    1.808433    0.047550
H      -2.038674    0.200298    0.558371
H       1.889725   -1.085128   -3.165281
H       1.517491   -1.335023    3.037682
