18

O      -0.031096    1.456524   -0.036960
C       0.025466    0.031772    0.024759
C       0.692350   -0.516549    1.320117
C      -0.489882   -0.912123    2.210719
C      -1.438540    0.307653    2.465767
C      -2.273015   -0.149622    1.270348
C      -1.555739   -1.487015    1.228683
C      -1.389704   -0.522473    0.087903
H       0.869746    1.781127   -0.133773
H       0.542308   -0.351949   -0.867090
H       1.301219   -1.397493    1.084287
H       1.346735    0.233107    1.778911
H      -0.224956   -1.503106    3.087499
H      -1.992402    0.191270    3.401347
H      -0.993142    1.305290    2.421568
H      -3.324309    0.060109    1.110393
H      -1.932446   -2.498736    1.156043
H      -1.920576   -0.709359   -0.838615
