16

C       0.006931    1.489132   -0.030253
C       0.045711   -0.023700    0.035067
O       0.090065   -0.641995    1.078363
C       0.026264   -0.702977   -1.245877
C       0.009570   -1.257271   -2.321439
C      -0.006573   -1.989847   -3.538325
C       0.031722   -3.497491   -3.508825
N      -0.054235   -1.285011   -4.619337
O      -0.065712   -2.098538   -5.740970
H       0.861752    1.862912   -0.604085
H      -0.896846    1.819897   -0.553244
H       0.026095    1.898127    0.980898
H      -0.851295   -3.904975   -4.010896
H       0.905530   -3.861365   -4.058276
H       0.068507   -3.864480   -2.483674
H      -0.101731   -1.460325   -6.462715
