13

N       0.050677   -1.146697    0.006681
C       0.034591    0.008807    0.032439
C       0.035238    1.445751    0.063791
C       0.529589    2.228381    1.254799
O       1.519101    1.535528    1.974667
C       2.414299    1.554178    0.826468
C       1.346588    2.244744   -0.032064
C       1.561676    3.245379   -1.019119
N       1.740289    4.061315   -1.819946
H      -0.782876    1.921705   -0.468619
H      -0.054604    2.991836    1.754554
H       3.273618    2.198928    1.024239
H       2.729919    0.553213    0.522012
