15

C       0.072184   -6.324682   -0.044065
C       0.061458   -5.114678   -0.033568
C       0.049666   -3.762237   -0.021697
C       0.039627   -2.542933   -0.010756
C       0.028242   -1.193581    0.001265
C       0.028105    0.021643    0.018611
C       0.012823    1.447090    0.028947
C       0.491182    2.210349    1.259985
C       1.322945    2.228293    0.016586
H       0.081493   -7.386245   -0.053437
H      -0.811395    1.898835   -0.515874
H      -0.066778    3.100151    1.527999
H       0.837529    1.618938    2.098740
H       2.238201    1.649153    0.004873
H       1.345750    3.130624   -0.583561
