19

O      -0.160007    0.117695    0.637264
C      -0.116866    1.258829    0.256707
C      -1.286972    2.110911   -0.239920
C      -0.654207    3.450794   -0.663669
C       0.639742    3.546943    0.179636
C       1.163990    2.122041    0.190655
C       2.357499    1.642582    1.028350
C       2.947909    1.186424   -0.319479
O       1.849548    1.779489   -1.054849
H      -1.840002    1.594883   -1.028756
H      -1.979867    2.234953    0.602004
H      -0.388600    3.420833   -1.724639
H      -1.319573    4.303619   -0.513206
H       1.372225    4.249076   -0.225420
H       0.404790    3.851116    1.208557
H       2.908481    2.441288    1.527657
H       2.119259    0.846893    1.735044
H       3.906933    1.626967   -0.612934
H       2.988260    0.100795   -0.459799
