18

O       0.059748   -0.041041    0.113729
C      -0.047416    1.163307   -0.017287
C      -1.394489    1.856604   -0.049693
C      -1.888324    2.186975    1.365850
C      -1.244637    3.360836    2.040331
C      -0.287807    4.209127    1.633367
C       0.580045    4.279900    0.460627
C       1.206347    3.333212   -0.259355
N       1.077417    1.948114   -0.171049
H      -1.372810    2.758101   -0.666492
H      -2.078579    1.136462   -0.504340
H      -2.971038    2.374314    1.334736
H      -1.773981    1.290480    1.991900
H      -1.687758    3.587805    3.009193
H      -0.103723    5.045110    2.308252
H       0.868106    5.293977    0.192562
H       1.940584    3.649000   -0.996453
H       1.916155    1.395763   -0.293717
