21

O      -0.097616    1.455993    0.644298
C      -0.015346    0.143040    0.096149
C       0.752792   -0.814725    1.017033
C      -0.247062   -1.169541    2.149023
C      -1.656189   -0.822987    1.590342
C      -1.435875   -0.441618    0.106753
C      -2.508787    0.482609   -0.485998
C      -3.851695   -0.202776   -0.582083
O      -4.884171    0.217429   -0.127281
H       0.797559    1.791541    0.750981
H       0.406304    0.178429   -0.919812
H       1.032419   -1.709358    0.448588
H       1.683264   -0.370256    1.386201
H      -0.164222   -2.222605    2.430297
H      -0.039259   -0.586695    3.049449
H      -2.365085   -1.648771    1.697273
H      -2.078836    0.031789    2.125612
H      -1.396327   -1.361828   -0.493220
H      -2.608302    1.399518    0.097889
H      -2.215841    0.759876   -1.509903
H      -3.826680   -1.175335   -1.132557
