16

O      -0.372890    0.138245    0.037871
C      -0.199803    1.318281    0.120911
C      -1.104695    2.557209    0.040089
N       0.117244    3.437610   -0.130672
C       0.974983    3.300172    1.042500
C       0.601785    3.189954    2.493225
C      -0.445824    4.010702    3.115798
O      -0.626805    2.604095    2.905343
C       1.020693    2.197032    0.035570
H      -1.672683    2.557440   -0.894703
H      -1.753627    2.788799    0.880797
H       1.834394    3.966738    0.946898
H       1.454895    2.907172    3.113750
H      -0.351236    4.315532    4.155865
H      -1.056949    4.656280    2.487393
H       1.899020    2.011656   -0.573936
