15

C       0.098718    1.311315   -0.138902
O      -0.299626   -0.009552    0.198163
C       0.510343   -0.593097    1.172830
C       0.169827   -2.025836    1.552496
C       0.437843   -2.948285    0.444054
N       1.608617   -2.504970    1.270228
C       1.901096   -1.169035    0.775539
O       2.908635   -0.737480    0.310399
H       1.118693    1.335407   -0.540952
H      -0.600258    1.667277   -0.898197
H       0.048149    1.976442    0.736366
H       0.618212    0.055737    2.057659
H      -0.323112   -2.326889    2.467687
H       0.214116   -3.999758    0.587227
H       0.362220   -2.597146   -0.580706
