21

C      -0.083734    1.403069   -0.143219
C       0.000792   -0.119678    0.036549
C       0.804700   -0.480858    1.316130
O       0.825352   -1.879366    1.583523
C       2.169777    0.056347    1.273529
C       3.306022    0.444336    1.202815
C      -1.383551   -0.739904    0.079064
C      -2.156619   -0.961327   -1.199359
C      -1.640950   -2.138010   -0.409580
H       0.908134    1.857290   -0.207212
H      -0.637349    1.647388   -1.053982
H      -0.612830    1.864564    0.699248
H       0.546552   -0.543585   -0.819106
H       0.278319   -0.044301    2.175431
H       1.425774   -2.286453    0.949386
H       4.306901    0.797503    1.161932
H      -1.975544   -0.422747    0.935774
H      -3.222504   -0.761722   -1.201207
H      -1.662522   -0.725212   -2.136908
H      -0.803425   -2.693067   -0.817973
H      -2.349656   -2.751781    0.134810
