13

O      -0.026098   -0.018058    0.018559
C      -0.015964    1.168407    0.019566
O      -1.135954    1.941532    0.067662
C      -0.818477    3.335236    0.026613
C       0.702324    3.379076    0.023583
C       1.429621    2.777288    1.180883
C       0.733270    2.493520    2.410321
N       0.185909    2.296237    3.409418
N       1.170469    1.997343   -0.065945
H      -1.222034    3.765813   -0.894096
H      -1.277129    3.826603    0.889208
H       1.209257    4.117126   -0.588448
H       2.480999    3.012774    1.313411
