15

C      -0.085885    1.406392   -0.021374
N       0.225626   -0.013306   -0.037641
C       0.057983   -0.740671    1.207049
C       0.070766   -0.698744   -1.207266
N       0.017407   -2.031461   -1.297306
N      -0.068923   -2.178825   -2.623489
N      -0.087211   -1.058719   -3.311565
N      -0.002607   -0.092974   -2.431503
H       0.478433    1.885814    0.784082
H       0.200864    1.853331   -0.972781
H      -1.157352    1.599035    0.144511
H      -1.000844   -0.896023    1.467248
H       0.537291   -1.717656    1.130632
H       0.532262   -0.175094    2.014096
H      -0.129786   -3.082953   -3.065151
