19

C      -0.079494    1.545128   -0.098894
C      -0.022342    0.038944    0.016054
C      -0.133295   -0.713395   -1.109475
N      -0.136079   -2.089423   -1.167525
C       0.336357   -2.806177    0.008493
C      -0.272109   -2.149679    1.247347
C       0.073187   -0.671766    1.293189
N       0.371302   -0.250018    2.472227
O       0.677439    1.123629    2.525247
H       0.853319    2.019077    0.216029
H      -0.278730    1.831310   -1.137091
H      -0.869788    1.971024    0.526680
H      -0.259820   -0.226619   -2.072473
H       0.123679   -2.484385   -2.057896
H       0.032390   -3.854689   -0.065035
H       1.436296   -2.774393    0.078052
H      -1.363077   -2.263993    1.201591
H       0.079926   -2.634367    2.159460
H       0.856315    1.244233    3.463030
