21

C      -0.595131    1.115812    0.462522
O      -0.408457   -0.287350    0.493656
C       0.819455   -0.676961    1.054697
O       0.906468   -0.334090    2.428358
C       0.532130   -1.452514    3.206112
C      -0.781467   -2.126637    2.911010
C       0.521639   -2.681057    2.353014
C       0.958833   -2.218751    0.967324
C       0.242050   -2.864350   -0.219306
H       0.198304    1.608436   -0.120356
H      -1.557094    1.299993   -0.020762
H      -0.603903    1.542361    1.471877
H       1.632056   -0.132971    0.550820
H       0.935877   -1.397238    4.209705
H      -1.243065   -2.685294    3.718834
H      -1.468576   -1.628965    2.238031
H       0.888817   -3.634427    2.714962
H       2.032984   -2.428631    0.885343
H      -0.836255   -2.705244   -0.163743
H       0.593055   -2.448198   -1.168741
H       0.433298   -3.941995   -0.233230
