22

C       0.263064    1.410978    0.271108
C      -0.070807   -0.059174   -0.028058
C      -1.588274   -0.301623   -0.046534
C       0.562661   -0.513018   -1.306496
C       1.001251   -1.826123   -1.838788
C       0.390951   -1.557094   -3.211376
C       0.480033   -0.055499   -2.830322
C       1.995284    0.155746   -2.705833
N       2.020465   -0.753444   -1.513571
H       1.345207    1.564117    0.313165
H      -0.146452    2.071712   -0.501831
H      -0.163409    1.719715    1.230940
H       0.370636   -0.676567    0.766433
H      -2.068849    0.284603   -0.838226
H      -1.821301   -1.356674   -0.220355
H      -2.040599   -0.005901    0.905360
H       1.132494   -2.767881   -1.321239
H       0.928032   -1.882617   -4.109483
H      -0.642586   -1.911002   -3.250162
H      -0.185736    0.678432   -3.281332
H       2.630918   -0.150884   -3.545786
H       2.275931    1.159717   -2.377948
