17

C       0.223869    1.447594    0.363485
C      -0.239994    0.076709   -0.162497
C       0.490075   -0.354867   -1.349579
C       1.105037   -0.670263   -2.335807
C       1.857979   -1.137789   -3.500604
C       2.176833   -2.643148   -3.294147
O       3.288762   -3.077091   -3.203319
C       1.124980   -0.987833   -4.758464
C       0.534006   -0.929150   -5.802496
H       1.283254    1.422691    0.631989
H       0.085374    2.221932   -0.395590
H      -0.351100    1.726758    1.251070
H      -0.124872   -0.678300    0.625509
H      -1.312298    0.112827   -0.392467
H       2.826177   -0.626186   -3.565053
H       1.269532   -3.277797   -3.230080
H       0.010612   -0.853126   -6.723627
