21

C       0.537047    1.409422    0.043220
C       0.083755   -0.059004    0.007471
C      -1.443634   -0.124812   -0.080765
C       0.778863   -0.807732   -1.186278
O       1.033366   -0.025715   -2.343858
C       2.005080   -1.424549   -0.557940
C       1.928672   -1.433313    0.771299
C       0.638069   -0.823885    1.263054
O       0.757676   -0.057339    2.452346
H       1.628729    1.503783    0.106593
H       0.208062    1.930249   -0.859535
H       0.106401    1.918573    0.909113
H      -1.804815    0.374281   -0.986188
H      -1.793861   -1.162669   -0.107733
H      -1.906567    0.362624    0.783778
H       0.109670   -1.598407   -1.551135
H       1.724959    0.607862   -2.125803
H       2.801674   -1.846365   -1.161749
H       2.651151   -1.863632    1.456811
H      -0.067927   -1.618779    1.538409
H       1.469216    0.578530    2.323310
