19

C       0.702476    0.361376    0.663033
C      -0.498915    0.136949   -0.237860
O      -1.544467    0.720981   -0.063711
C      -0.361201   -0.883953   -1.368901
C       0.909641   -0.768893   -2.255838
C       1.180039   -2.197497   -2.787848
C       0.608157   -3.099610   -1.714516
O       0.985535   -2.725025   -0.379056
C      -0.303939   -2.325041   -0.864714
H       1.400664    1.051096    0.173473
H       0.371923    0.816977    1.597503
H       1.243522   -0.570437    0.847570
H      -1.269862   -0.785207   -1.973121
H       0.778414   -0.039474   -3.057903
H       1.757750   -0.443211   -1.651602
H       0.642761   -2.385647   -3.725308
H       2.242570   -2.378534   -2.976032
H       0.491459   -4.167790   -1.877888
H      -1.155427   -2.757792   -0.346303
