17

N       0.036438   -1.120770    0.041101
C       0.014059    0.034169    0.007846
C       0.001815    1.486119    0.006326
C      -0.970522    2.173712    1.014708
C      -1.453577    2.993661   -0.171135
C      -0.328709    3.503094   -0.993986
C       1.067938    3.604135   -0.393345
C       1.389312    2.141212   -0.001784
N      -0.763823    2.095450   -1.180829
H      -1.736518    1.483559    1.369947
H      -0.520947    2.689772    1.868491
H      -2.475705    3.324266   -0.323714
H      -0.590179    4.144604   -1.829260
H       1.782869    3.989399   -1.123981
H       1.089821    4.277361    0.469037
H       1.887501    2.045175    0.966220
H       2.016582    1.660025   -0.757022
