15

C      -0.046816    1.568924   -0.140659
C       0.041863    0.061798   -0.018969
C       1.325080   -0.662726   -0.197630
O       2.451946    0.116966   -0.452373
C       0.680023   -0.639589    1.198179
C       1.302592    0.133971    2.291909
O       1.257192   -0.196025    3.455097
H       0.906021    2.053362    0.075885
H      -0.325427    1.839905   -1.164180
H      -0.807813    1.975397    0.532515
H      -0.835443   -0.464043   -0.385077
H       1.307952   -1.626109   -0.706495
H       3.224031   -0.339514   -0.101836
H       0.206584   -1.554943    1.537550
H       1.840834    1.053739    1.983274
