23

C       0.106076    1.622621   -0.318536
C       0.231058    0.121015   -0.154740
C       1.466025   -0.697943   -0.417478
C       2.729920    0.003971    0.102839
C       2.136686   -0.035354    1.552678
C       2.087038    1.204548    2.439491
C       0.842260   -0.653133    0.990587
C       0.066261   -1.703819    1.719743
O      -0.678950   -1.065516    2.756474
H       1.046574    2.149284   -0.148066
H      -0.218906    1.862018   -1.337526
H      -0.636982    2.033068    0.373377
H      -0.660475   -0.398254   -0.506279
H       1.466931   -1.519726   -1.125370
H       3.636108   -0.596757   -0.000524
H       2.932018    0.994481   -0.317957
H       2.658947   -0.825725    2.105541
H       1.625434    2.059927    1.941043
H       1.501832    0.993606    3.340424
H       3.095083    1.502637    2.750033
H      -0.600339   -2.233145    1.018948
H       0.756244   -2.452072    2.144466
H      -1.086738   -1.750518    3.295225
