14

C       0.000281    1.511564   -0.047461
N       1.362378    2.057535    0.045860
C       2.364039    1.302225    0.251063
N       2.370841   -0.078355    0.419775
C       1.166817   -0.719252    0.215010
N       0.916608   -2.020529    0.193534
N      -0.403002   -2.034947   -0.051658
N      -1.001965   -0.855318   -0.183390
C      -0.008267    0.012236   -0.014877
H      -0.593034    1.933466    0.776022
H      -0.461263    1.894456   -0.966550
H       3.355301    1.748959    0.322291
H       3.235800   -0.592116    0.439381
H      -0.912278   -2.899327   -0.119994
