17

C      -0.019308    1.537190    0.040072
C      -0.014325    0.037716   -0.015624
C      -0.019535   -0.632846   -1.183559
C       0.054395   -2.095918   -1.285579
O       0.113719   -2.688853   -2.341487
C       0.078476   -2.878935    0.053253
O       0.495814   -4.007237    0.102781
C      -0.481040   -2.127022    1.245237
C       0.027605   -0.677815    1.312552
H       0.838064    1.904894    0.617961
H       0.016002    1.984437   -0.955335
H      -0.916996    1.901310    0.555647
H      -0.031998   -0.102350   -2.132013
H      -1.573113   -2.108092    1.119337
H      -0.262003   -2.685424    2.158262
H       1.063866   -0.661749    1.680305
H      -0.550851   -0.112699    2.052347
