21

C      -0.011363    1.624239   -0.128980
C      -0.035758    0.093628    0.000604
C       0.942504   -0.629718   -0.995358
C       1.943226   -0.929508    0.160023
C       0.899296   -0.379888    1.140502
O       0.812820   -0.357564    2.336344
C      -1.459259   -0.424475    0.035582
C      -1.831265   -1.736877    0.681438
C      -2.266007   -0.434946    1.310094
H       1.011643    2.013550   -0.168921
H      -0.522909    1.932431   -1.047668
H      -0.520181    2.089325    0.720092
H       0.507689   -1.532733   -1.427711
H       1.330051   -0.002073   -1.799913
H       2.221126   -1.973988    0.325264
H       2.860940   -0.333116    0.143681
H      -2.012044   -0.179119   -0.869700
H      -2.576958   -2.352364    0.190454
H      -1.059558   -2.300835    1.194352
H      -1.758817   -0.138861    2.220965
H      -3.313087   -0.157718    1.257585
