17

C       0.195303    1.002586    0.615530
O      -0.422582    0.330046   -0.486894
C       0.406577   -0.430745   -1.231866
C       0.688944   -1.747236   -1.158449
N       1.566690   -2.024172   -2.212615
C       1.827560   -0.893128   -2.965113
O       2.520814   -0.783720   -3.960630
N       1.100703    0.109205   -2.320385
C       1.020062    1.460962   -2.824293
H       0.663569    0.281314    1.294699
H       0.952464    1.718985    0.275048
H      -0.601031    1.537884    1.135597
H       0.346060   -2.495557   -0.467144
H       1.935445   -2.923395   -2.464429
H       1.510238    1.463073   -3.799571
H      -0.022172    1.773658   -2.931589
H       1.535838    2.172497   -2.169498
