9

F       0.041379    0.078328    0.002667
C      -0.021856    1.391689    0.011060
N      -1.160425    1.956781    0.029166
C      -1.182454    3.346439    0.037325
O      -2.154899    4.028293    0.053910
O       0.070873    4.023338    0.024610
N       1.269638    3.376539    0.005217
C       1.239303    2.089577   -0.001625
H       2.189967    1.570821   -0.017074
