18

C       0.010925    1.471911    0.037166
C      -0.002552   -0.025875   -0.032720
C      -0.958621   -0.887025    0.807341
C      -1.093838   -2.248369    0.127531
C       0.412609   -2.100615   -0.210276
C       0.538438   -1.043385    0.956436
C       0.457347   -0.891809   -1.191090
O      -0.369084   -0.881068   -2.335227
H       0.987927    1.875598   -0.252873
H      -0.741185    1.903988   -0.632155
H      -0.205444    1.823182    1.051744
H      -1.643581   -0.411014    1.498217
H      -1.264938   -3.043530    0.858496
H      -1.782854   -2.348250   -0.716615
H       1.048080   -2.970472   -0.367052
H       1.209772   -0.933229    1.795078
H       1.498690   -0.646949   -1.448224
H       0.049845   -1.412243   -3.019924
