14

N      -0.062412    1.257462    0.344386
C      -0.482812    0.099639   -0.237032
O      -0.983402    0.003883   -1.329106
O      -0.264670   -0.923773    0.644373
C      -0.627985   -2.207609    0.342946
N      -0.259985   -3.123024    1.227204
N      -0.746354   -4.270672    0.710677
C      -1.400219   -4.093920   -0.459467
C      -1.350371   -2.745691   -0.746340
H       0.001100    2.064318   -0.250844
H       0.506360    1.217555    1.172320
H      -0.591673   -5.126991    1.212989
H      -1.844120   -4.918761   -0.994310
H      -1.753931   -2.224233   -1.592277
