21

C       0.186109    1.278494   -0.270282
O      -0.223697    0.021049    0.232768
C       0.612920   -0.499025    1.231176
C       1.902284   -1.135159    0.752160
C       0.731229   -1.995239    1.184314
O       0.857317   -2.744180    2.358088
C       0.297219   -2.133942    3.513066
C       0.890436   -0.746046    3.743682
C       0.506150    0.187934    2.583856
H       1.217178    1.248021   -0.650592
H      -0.489366    1.525660   -1.092658
H       0.119464    2.071251    0.487966
H       2.121727   -1.076651   -0.308055
H       2.766053   -1.124030    1.408463
H       0.165940   -2.501640    0.405839
H      -0.799324   -2.065569    3.422067
H       0.526728   -2.810237    4.341238
H       0.529312   -0.332407    4.691399
H       1.979359   -0.841435    3.827435
H       1.101468    1.107738    2.614071
H      -0.544941    0.481917    2.697188
