14

C      -0.067559    1.482456    0.127487
C       0.026433   -0.004407    0.020593
C      -0.062241   -0.824469   -1.057913
O       0.076314   -2.115524   -0.707307
N       0.280034   -2.190950    0.664185
C       0.236129   -0.946336    1.070514
O       0.406319   -0.592513    2.370733
C       0.023691   -1.483357    3.351594
O       0.250677   -1.260494    4.495582
H       0.855389    1.910009    0.532113
H      -0.250014    1.933192   -0.850756
H      -0.880767    1.781434    0.796667
H      -0.219521   -0.640380   -2.109709
H      -0.497843   -2.358464    2.938488
