20

C      -0.123142    1.522805    0.011035
C      -0.013032    0.025000   -0.034175
C      -0.084840   -0.677552   -1.165259
C       0.065349   -2.178525   -1.212675
C       1.416186   -2.667879   -0.684887
O       1.596148   -2.619101    0.737376
C       1.456010   -1.458271    1.453318
N       2.316335   -1.115451    2.317665
C       0.168564   -0.677901    1.304317
H       0.776926    1.966884    0.454452
H      -0.262951    1.949034   -0.985836
H      -0.965674    1.837151    0.640665
H      -0.234437   -0.157413   -2.108044
H      -0.734281   -2.678522   -0.647340
H      -0.022328   -2.530257   -2.246187
H       1.550398   -3.726674   -0.924057
H       2.226217   -2.102671   -1.165286
H       3.102762   -1.769317    2.290598
H       0.151881    0.044972    2.120281
H      -0.664487   -1.377335    1.461789
