18

C      -0.230078    1.461544   -0.021265
N       0.066015    0.040185    0.077410
C       1.388026   -0.508607   -0.195724
C       2.587642    0.376452   -0.131246
C       2.745098    0.911012    1.083106
C       1.707475    0.414321    2.061915
C       0.805504   -0.487791    1.221316
C       0.234981   -1.720730    1.824139
O       0.531037   -2.144270    2.915141
H       0.604399    2.126917    0.235024
H      -0.538733    1.676535   -1.048830
H      -1.072887    1.684234    0.639795
H       1.393571   -1.397311   -0.821743
H       3.218825    0.559314   -0.992833
H       3.504759    1.634856    1.357288
H       2.141950   -0.176400    2.876225
H       1.155388    1.235663    2.536681
H      -0.499880   -2.233264    1.166461
