23

C       0.056033    1.389497    0.108380
O      -0.072730   -0.005213   -0.055979
C       0.612867   -0.536799   -1.177053
C       2.111991   -0.726366   -0.890581
O       2.768690   -1.344074   -1.981768
C       2.255218   -2.637101   -2.253610
C       0.767441   -2.605578   -2.625474
C       0.228458   -4.012702   -2.894840
C      -0.015611   -1.887791   -1.513898
H       1.087618    1.700759    0.327777
H      -0.284385    1.935788   -0.785059
H      -0.575548    1.672278    0.954397
H       0.508115    0.142337   -2.039750
H       2.616328    0.230773   -0.731866
H       2.218323   -1.327596    0.028640
H       2.856319   -3.035292   -3.077033
H       2.402975   -3.295004   -1.377944
H       0.680595   -2.012567   -3.546553
H       0.312103   -4.645023   -2.003240
H      -0.828186   -3.980270   -3.178984
H       0.777902   -4.503245   -3.705490
H      -0.011361   -2.501087   -0.602019
H      -1.064563   -1.748804   -1.797321
