16

C       0.040439    1.486216    0.114038
O       1.366914    2.068548    0.027186
C       2.138954    1.412781   -0.857948
C       2.024900    0.091229   -1.242689
C       3.139256   -0.167177   -2.104279
C       3.871814    0.987883   -2.196024
N       3.248683    1.958333   -1.415061
C       0.976572   -0.682020   -0.612348
C       0.046589   -0.024782    0.098866
H      -0.380585    1.883521    1.040213
H      -0.553014    1.886126   -0.727365
H       3.368741   -1.098482   -2.599602
H       4.761422    1.225621   -2.754384
H       3.548692    2.909762   -1.292181
H       0.986446   -1.766074   -0.667455
H      -0.737397   -0.536069    0.645387
