15

N       0.012908   -1.151658   -0.074134
C       0.025295    0.004950   -0.038735
C       0.027058    1.446954    0.001023
N      -0.445110    2.188493   -1.192507
C       0.842953    2.944140   -1.281506
C       1.351761    2.282480    0.029940
C       0.895047    2.888913    1.377628
O      -0.375922    3.509570    1.175003
C      -0.356219    2.107249    1.378963
H      -0.626084    1.585626   -1.986487
H       1.455715    2.683041   -2.150089
H       0.698941    4.026466   -1.245502
H       2.321661    1.789704    0.031069
H       1.505991    3.256119    2.193079
H      -0.966756    1.693758    2.173250
