16

N      -0.124752    1.140712    0.857391
C       0.009359    0.147618    0.082129
N      -1.055837   -0.741891   -0.075790
C      -1.592202   -1.407469   -1.193242
O      -2.774326   -1.692601   -1.194450
N      -0.774339   -1.749085   -2.233762
C       0.664798   -1.663643   -2.392054
C       1.386868   -1.438917   -1.078277
O       1.160159   -0.119402   -0.582290
H       0.763554    1.628725    0.954922
H      -1.808595   -0.509662    0.558621
H      -1.296923   -2.203866   -2.965708
H       1.024620   -2.604024   -2.827703
H       0.943137   -0.853732   -3.080706
H       1.099319   -2.185765   -0.330666
H       2.464746   -1.500764   -1.242562
