23

C       2.238342    0.544756   -0.988886
N       3.045519    0.058673    0.117858
C       3.659945    1.024199    1.019162
C       2.618179    0.078214    1.517875
C       1.262718    0.471498    2.128730
C       0.679554    1.821353    1.672496
C       0.248576   -0.651177    1.827204
C       1.491203    0.543739    3.655195
H       2.879698    0.608378   -1.875058
H       1.441231   -0.172584   -1.209221
H       1.784667    1.534423   -0.839055
H       4.712493    0.874980    1.251827
H       3.373600    2.069166    0.903935
H       3.000093   -0.806451    2.031374
H      -0.213628    2.047813    2.265565
H       1.385288    2.643829    1.821974
H       0.375181    1.816005    0.624143
H       0.624258   -1.622890    2.165107
H      -0.702224   -0.463295    2.338005
H       0.043891   -0.727552    0.754894
H       2.202064    1.336571    3.910472
H       0.550636    0.752423    4.176133
H       1.886372   -0.400268    4.045075
