22

C      -0.512346    0.536697   -2.653285
C      -0.232665   -0.458756   -1.519579
C      -1.502307   -0.861143   -0.795091
C      -2.372287   -2.025330   -1.196553
C      -2.076214   -2.942622   -2.363437
C      -1.575101   -2.094959    0.113130
C      -0.392669   -3.038186    0.291237
C      -2.351089   -1.930557    1.318718
N      -2.969936   -1.801346    2.288595
H       0.415451    0.836282   -3.149719
H      -1.174144    0.101339   -3.408900
H      -0.995406    1.442839   -2.272528
H       0.282764   -1.333486   -1.926711
H       0.459883   -0.006274   -0.798794
H      -2.050591   -0.005730   -0.407688
H      -3.435943   -1.863392   -1.046196
H      -1.008056   -3.083687   -2.540421
H      -2.519241   -3.930942   -2.202656
H      -2.508580   -2.532222   -3.282220
H       0.180957   -3.150688   -0.629000
H       0.283837   -2.663496    1.065117
H      -0.736011   -4.030561    0.598249
