17

C       0.065583    1.465489   -0.028705
C      -0.057844   -0.013151    0.106475
O       0.557056   -0.893460   -0.956307
C       0.005385   -1.908192    0.017620
C       0.226508   -3.356224   -0.254764
C       0.575114   -0.991641    1.150541
O       1.958251   -0.951634    1.281348
C      -1.241396   -0.997957   -0.007467
O      -2.419116   -1.029689   -0.168666
H       1.106837    1.779423    0.093923
H      -0.292657    1.796178   -1.007376
H      -0.534900    1.957051    0.742848
H       1.286699   -3.610288   -0.158581
H      -0.337670   -3.956606    0.465479
H      -0.111813   -3.617072   -1.261236
H       0.126191   -1.053234    2.144743
H       2.301867   -0.897778    0.377363
