19

C       0.078321    1.505376   -0.165228
C       0.011452   -0.002143   -0.010876
O       0.660063   -0.584396   -1.153038
C       0.701819   -1.928742   -1.196312
N       0.206683   -2.667675   -0.297220
C       1.416150   -2.368470   -2.458372
O       1.453235   -3.770235   -2.493665
C       2.102274   -4.279121   -3.636062
H       1.115967    1.848591   -0.210868
H      -0.430187    1.828381   -1.078286
H      -0.406826    1.988238    0.688288
H       0.515344   -0.346074    0.898501
H      -1.020218   -0.366209    0.036744
H       0.361800   -3.642704   -0.551013
H       0.887744   -1.954548   -3.333250
H       2.430321   -1.935616   -2.466673
H       1.596284   -3.968993   -4.563299
H       3.151281   -3.949278   -3.688611
H       2.076136   -5.368668   -3.565044
