17

C      -0.472536    1.695369   -1.007483
N      -0.171157    0.285193   -0.968960
C      -0.598692   -0.493412   -0.060889
C      -1.467122   -0.204356    1.135315
N      -0.181449   -1.833155   -0.219682
C      -0.427388   -2.938075    0.532873
O      -1.085944   -3.034507    1.551651
C       0.250975   -4.187399   -0.047137
O       0.919258   -4.185102   -1.047411
H       0.467903    2.259017   -0.998618
H      -0.964437    1.926668   -1.959700
H      -1.105373    2.077601   -0.196445
H      -1.740724    0.848504    1.175677
H      -2.374199   -0.812486    1.104739
H      -0.950342   -0.478952    2.057880
H       0.400909   -1.986046   -1.036801
H       0.054159   -5.091333    0.561711
