14

O       0.041519    1.369478    0.009789
C      -0.005797   -0.031488    0.002775
C      -1.465478   -0.445542    0.011811
O      -2.410626    0.291320    0.023195
N      -1.662988   -1.855312    0.006457
C      -2.850497   -2.527391    0.012673
N      -2.639280   -3.820601    0.004566
C      -1.270108   -3.904822   -0.006836
N      -0.633684   -2.753953   -0.006218
H       0.966224    1.632806    0.001666
H       0.466630   -0.483469   -0.882897
H       0.480134   -0.492673    0.876343
H      -3.798539   -2.014209    0.022816
H      -0.740932   -4.846178   -0.015749
