20

C      -0.016079    1.560081   -0.003757
C       0.109427    0.036668    0.034064
C       0.785791   -0.521927   -1.237250
C       1.028480   -2.004677   -1.151013
C       1.102647   -2.659244    0.005819
C       1.016717   -1.992458    1.352924
C       0.811886   -0.498707    1.262939
N       1.174788    0.336686    2.157807
O       1.780595   -0.292040    3.261471
H       0.969607    2.034395   -0.015909
H      -0.558553    1.869077   -0.903160
H      -0.548834    1.937747    0.871562
H      -0.902523   -0.398397    0.054399
H       0.154860   -0.293356   -2.104879
H       1.734104    0.008149   -1.412674
H       1.143647   -2.546478   -2.086423
H       1.267672   -3.733840    0.014584
H       0.202692   -2.434664    1.948317
H       1.923799   -2.189827    1.934852
H       2.023681    0.460946    3.809796
