18

C      -0.057752   -1.171320   -0.390466
C      -0.042591    0.001004   -0.126658
C       0.006302    1.422857    0.205645
C       1.414004    1.986503    0.165363
C       2.489825    1.395641    1.067310
O       3.560994    2.334929    1.044466
C       2.998235    3.635998    0.892406
C       1.753714    3.429028    0.048688
N       1.891253    2.533178   -1.108322
H      -0.082777   -2.205139   -0.631260
H      -0.613081    1.989715   -0.497644
H      -0.420612    1.577505    1.205786
H       2.090018    1.260902    2.086100
H       2.881490    0.434814    0.720479
H       2.724872    4.077616    1.864823
H       3.759981    4.269951    0.426366
H       1.015141    4.220480   -0.031987
H       2.872301    2.295121   -1.249875
