18

C      -0.360381    1.615948    0.014428
C      -0.250204    0.087821   -0.036871
C       0.819641   -0.465980    0.911114
N      -1.563804   -0.558021    0.192273
C      -2.154183   -1.324874   -0.811539
N      -1.598120   -1.496342   -1.941660
C      -2.230473   -0.418038    1.394861
O      -3.302970   -0.910977    1.662697
H       0.595644    2.065175   -0.270976
H      -1.125952    1.973537   -0.679519
H      -0.608758    1.978850    1.017311
H       0.007235   -0.205135   -1.055844
H       0.625247   -0.198291    1.955009
H       0.874406   -1.555729    0.840544
H       1.798448   -0.056954    0.643013
H      -3.113729   -1.728736   -0.486435
H      -2.183117   -2.082705   -2.533385
H      -1.669462    0.207466    2.109968
