17

C      -0.591847    1.418746   -0.003711
C      -0.192955   -0.035612    0.059007
C       1.139053   -0.484166   -0.438316
N       0.837634   -0.520384    0.990648
C       1.502621    0.341540    1.867941
C       1.015988    1.019047    2.947943
O       2.016018    1.654855    3.588894
N       3.210221    1.397359    2.938679
C       2.900457    0.624367    1.927134
H       0.276156    2.081382    0.033752
H      -1.132165    1.613503   -0.935677
H      -1.254682    1.685882    0.826713
H      -1.021112   -0.736068   -0.032109
H       1.263296   -1.452425   -0.914977
H       1.814573    0.292212   -0.794184
H       0.030944    1.132453    3.369840
H       3.680504    0.277672    1.264257
