21

C      -0.018872    1.527777    0.059947
C      -0.028715   -0.007819   -0.012881
C      -1.482912   -0.506609    0.043854
C       0.739721   -0.531194   -1.253387
C       2.175108    0.012627   -1.336901
C       0.771834   -2.063690   -1.299601
O       1.410991   -2.463651   -2.506368
H       0.990715    1.933979    0.154888
H      -0.473596    1.964814   -0.837592
H      -0.595931    1.874264    0.923535
H       0.492461   -0.385731    0.880181
H      -2.027728   -0.228199   -0.866448
H      -1.555799   -1.591153    0.157712
H      -2.008669   -0.056295    0.892227
H       0.195298   -0.201810   -2.150832
H       2.713872   -0.481917   -2.147175
H       2.195849    1.088952   -1.522675
H       2.719094   -0.178119   -0.402972
H       1.317651   -2.442942   -0.418231
H      -0.246240   -2.472819   -1.258816
H       1.443383   -3.424117   -2.522966
