12

C      -0.025521    1.467801   -0.018546
C       0.028047    0.015218    0.038663
C       0.063223   -1.187668    0.087669
C       0.137527   -2.622414    0.126275
C      -0.585974   -3.416040    1.139755
O      -1.051749   -3.363600   -0.201768
H       0.821101    1.873667   -0.582787
H      -0.944465    1.806711   -0.509227
H      -0.001451    1.908908    0.983975
H       1.046047   -3.055411   -0.291720
H      -0.171918   -4.371172    1.461357
H      -1.200885   -2.896336    1.872102
