19

C       0.345599    1.400182    0.124240
C       0.299677   -0.131795   -0.026127
C       0.624078   -0.578278   -1.377298
C       0.909167   -0.911936   -2.499328
C       1.227543   -1.350670   -3.857080
N       1.405459   -2.796813   -3.966382
C       2.669469   -3.311972   -4.184848
N       2.747555   -4.687641   -4.003075
O       3.630312   -2.635139   -4.498618
H       1.341701    1.783259   -0.112620
H      -0.368965    1.878435   -0.551053
H       0.098460    1.689448    1.149958
H       0.998398   -0.589819    0.685543
H      -0.697513   -0.496593    0.252264
H       0.439527   -1.022808   -4.547332
H       2.167862   -0.908583   -4.200636
H       0.771986   -3.355367   -3.415035
H       1.920007   -5.231509   -4.197746
H       3.592374   -5.077190   -4.393329
