13

N      -0.054506    1.375859    0.044988
C       0.075694    0.020856   -0.059573
O       1.146349   -0.543173   -0.168414
C      -1.194800   -0.693288   -0.038423
C      -2.212913   -1.336230   -0.025302
C      -3.453102   -2.112438   -0.012240
C      -3.241838   -3.559698    0.030722
C      -3.081756   -4.748321    0.066707
H       0.783094    1.933438    0.079548
H      -0.948453    1.810826    0.189934
H      -4.062612   -1.803878    0.848471
H      -4.046092   -1.853504   -0.900545
H      -2.930239   -5.798978    0.097782
