19

C       0.382522    1.454482    0.226463
C      -0.198177    0.111394   -0.219098
N       0.573425   -0.512715   -1.281754
C       1.788773   -1.129387   -1.207968
C       2.062159   -1.473777   -2.517582
N       3.168992   -2.086927   -3.073214
C       4.010511   -2.901663   -2.218617
N       1.021969   -1.066156   -3.297457
N       0.127949   -0.482108   -2.540565
H       1.394298    1.337770    0.625484
H       0.422721    2.151564   -0.614634
H      -0.244471    1.890098    1.010112
H      -0.254851   -0.587243    0.622370
H      -1.205034    0.236889   -0.622297
H       2.316925   -1.263118   -0.280752
H       2.954339   -2.492786   -3.972809
H       4.796958   -3.360176   -2.822123
H       4.499747   -2.272522   -1.466083
H       3.463546   -3.698745   -1.689063
