16

O       0.020115   -0.065197   -0.249115
C       0.028498    1.115279    0.002967
C       1.285444    1.939090    0.014308
C       1.209809    3.380758   -0.587932
O       0.352844    3.789002    0.552910
C       1.442737    2.993892    1.161319
C       2.428973    3.761582    0.266736
N       3.836346    3.648760   -0.008525
C       3.257173    4.952653    0.445138
H      -0.899787    1.668152    0.244594
H       2.162634    1.341245   -0.241362
H       0.912689    3.691988   -1.588075
H       1.422722    2.842231    2.240739
H       4.330055    3.191916    0.754805
H       3.271493    5.735843   -0.306953
H       3.465542    5.288479    1.457556
