22

C      -0.142309    1.483501   -0.020275
C      -0.013167   -0.022043    0.042073
C       1.326837   -0.690854   -0.196539
C       0.710495   -0.688410    1.172774
C       1.323260   -0.071718    2.456179
C       0.881513   -1.344618    3.209292
C       1.587721   -1.989424    4.360492
N      -0.595552   -1.403442    3.055999
C       0.288658   -1.908220    1.962775
H       0.753978    1.974089    0.373651
H      -0.281708    1.828438   -1.051075
H      -0.996939    1.832072    0.569698
H      -0.878980   -0.562858   -0.333822
H       1.352355   -1.623779   -0.751868
H       2.189104   -0.051311   -0.365068
H       2.410744    0.031950    2.398812
H       0.880657    0.859280    2.820882
H       1.461574   -1.405675    5.280481
H       1.198586   -2.996473    4.548471
H       2.662372   -2.075629    4.166591
H      -0.907080   -2.224579    3.577804
H       0.216750   -2.934773    1.619997
