19

C      -0.118858    1.610118   -0.130019
C      -0.017265    0.104465    0.033932
O       1.003058   -0.444736   -0.890572
C       1.925946   -0.677972    0.216727
C       0.767108   -0.495685    1.160584
C       0.017610   -1.088868    2.083552
C      -1.447994   -0.842704    1.735774
C      -1.374008   -0.617797    0.181900
O      -2.440859    0.121336   -0.372934
H       0.864763    2.076701   -0.031329
H      -0.523773    1.844111   -1.118341
H      -0.792554    2.040293    0.616320
H       2.389246   -1.669719    0.184084
H       2.709630    0.090163    0.246868
H       0.344297   -1.760862    2.868443
H      -2.083299   -1.695226    2.000461
H      -1.879247    0.042698    2.220856
H      -1.271167   -1.599720   -0.302249
H      -3.236623   -0.417197   -0.334187
