21

C      -0.222954    1.566194    0.037096
C       0.050842    0.062091   -0.012942
C       0.990437   -0.502869   -1.114659
C       2.277275    0.279279   -0.776248
C       2.442169   -0.406239    0.604284
C       2.743226   -1.829191    0.076808
C       1.318177   -1.963576   -0.490906
O       0.619355   -1.967366    0.767328
C       0.907985   -0.597259    1.092845
H       0.644975    2.165885    0.320664
H      -0.581721    1.934988   -0.930435
H      -1.005482    1.771404    0.775263
H      -0.910173   -0.457836   -0.016431
H       0.629968   -0.490022   -2.142951
H       3.122825    0.070591   -1.435575
H       2.129285    1.358198   -0.762848
H       3.128101    0.033461    1.326501
H       3.564725   -1.837885   -0.642950
H       2.908952   -2.594382    0.836232
H       1.049189   -2.837077   -1.082575
H       0.685495   -0.393410    2.139696
