19

C      -0.044859    1.512913   -0.150868
C       1.525681    1.586155   -0.021482
C       1.971817    1.338875   -1.446416
C       2.019548    0.022964   -1.695613
C       0.934857   -0.760883   -2.433603
C       0.483857   -1.114189   -0.961501
C       0.004432   -0.019340    0.110730
C       1.473961    0.145484    0.630847
C       1.935550   -0.840565   -0.447004
H      -0.541859    2.006108    0.692724
H      -0.485900    1.886409   -1.080947
H       1.940881    2.433114    0.530499
H       1.726816    2.076165   -2.207580
H       0.274241   -0.189609   -3.089805
H       1.249130   -1.683774   -2.935433
H      -0.011977   -2.081225   -0.834559
H      -0.784245   -0.416331    0.750830
H       1.738969    0.030093    1.680131
H       2.671783   -1.631121   -0.294526
