21

C      -0.776845    1.788322   -0.079151
O      -0.547212    0.532183   -0.695880
C      -1.254367   -0.511636   -0.103947
C      -1.014531   -1.937930   -0.698743
C       0.321298   -2.064097   -1.425307
C      -1.040383   -2.527545    0.762016
C      -0.099655   -3.636495    1.209426
C      -0.771664   -1.093791    1.245289
O      -0.201348   -0.632335    2.193846
H      -0.188186    2.524946   -0.630403
H      -1.840471    2.069006   -0.133101
H      -0.464069    1.782745    0.971182
H      -2.334535   -0.288241   -0.046172
H      -1.828134   -2.292062   -1.335269
H       1.152451   -1.698082   -0.814393
H       0.524278   -3.106582   -1.688656
H       0.311403   -1.471245   -2.343331
H      -2.075480   -2.787036    1.019973
H       0.939333   -3.408432    0.957782
H      -0.156310   -3.759617    2.295049
H      -0.361594   -4.592708    0.745774
