15

C      -0.017303    1.445136    0.031701
N       0.001510   -0.000890    0.049191
C      -0.019665   -0.754214   -1.107629
O      -0.054474   -0.386042   -2.253073
O       0.007311   -2.070556   -0.705102
C       0.043991   -2.097491    0.674386
C       0.041388   -0.850325    1.164979
C       0.072109   -0.352837    2.566227
H       0.881011    1.862126    0.498739
H      -0.048974    1.748584   -1.015846
H      -0.899850    1.839505    0.546048
H       0.068437   -3.065181    1.143163
H       0.100914   -1.197127    3.258547
H       0.953021    0.270991    2.757454
H      -0.812805    0.248923    2.804026
