16

O      -0.256287   -0.011166   -0.202363
C      -0.017633    1.151499   -0.003703
C       1.336897    1.801358   -0.169547
C       1.275119    3.017541   -1.122002
C       2.572307    3.761164   -1.190553
N       2.976130    4.571838   -0.206274
N       4.154259    5.006902   -0.631716
N       4.565166    4.561372   -1.808738
C       3.568202    3.759148   -2.185072
H      -0.820988    1.852124    0.328102
H       1.663241    2.154509    0.818019
H       2.051451    1.051906   -0.519878
H       0.999388    2.681973   -2.126932
H       0.486721    3.699992   -0.784554
H       4.703763    5.655796   -0.091603
H       3.604004    3.233259   -3.126037
