22

C      -0.264591    1.769551   -0.387597
C      -0.139026    0.247571   -0.488835
C      -1.277763   -0.477744    0.214370
O      -1.088454   -1.869942    0.075224
C      -2.095339   -2.634847    0.694674
C      -1.768211   -4.102707    0.467462
O      -2.776118   -4.866996    1.087651
C      -2.579478   -6.252212    0.943812
H       0.563971    2.267048   -0.899715
H      -1.196227    2.125048   -0.841632
H      -0.257208    2.102886    0.656099
H      -0.124342   -0.064044   -1.539586
H       0.808867   -0.086060   -0.051126
H      -1.307293   -0.201140    1.283107
H      -2.248767   -0.179067   -0.218669
H      -2.144782   -2.430179    1.776567
H      -3.087613   -2.407365    0.272229
H      -1.719459   -4.309170   -0.614247
H      -0.776392   -4.331823    0.890437
H      -3.405240   -6.755514    1.452755
H      -2.575508   -6.557221   -0.114871
H      -1.630042   -6.579968    1.396585
