21

C       0.039914    1.564692    0.039656
C      -0.004434    0.057194   -0.117414
C      -1.212195   -0.593903   -0.093972
C      -2.490828    0.200387    0.088794
C      -1.356166   -2.037755   -0.093917
C      -0.557172   -2.934231   -0.700306
C       0.570685   -2.509307   -1.602272
C       1.572117   -1.786343   -0.741684
C       1.280476   -0.616364   -0.145139
H       1.069415    1.930458    0.043187
H      -0.483048    2.068032   -0.782199
H      -0.439489    1.902232    0.967099
H      -2.647935    0.901648   -0.739342
H      -3.361730   -0.458157    0.127735
H      -2.482131    0.800177    1.007550
H      -2.211039   -2.417010    0.464635
H      -0.723662   -3.995683   -0.537825
H       1.023285   -3.366984   -2.104987
H       0.188632   -1.828525   -2.376427
H       2.554919   -2.228222   -0.601531
H       2.083516   -0.101875    0.381215
