21

C      -0.103963    1.516757    0.009039
C      -0.065162    0.003963    0.069870
C      -1.236705   -0.693350   -0.589213
N       1.296780   -0.575625   -0.107204
C       0.627099   -0.666879    1.192088
C       1.278586   -0.120157    2.488360
C       0.889216   -1.443615    3.165825
N      -0.586651   -1.551072    3.064033
C       0.270054   -1.956201    1.912539
H       0.790752    1.947992    0.463204
H      -0.152729    1.861039   -1.030539
H      -0.983564    1.904082    0.535048
H      -1.280852   -0.453948   -1.658456
H      -1.168825   -1.780606   -0.486758
H      -2.182928   -0.375683   -0.138044
H       1.233022   -1.469529   -0.592688
H       2.356736    0.001317    2.362059
H       0.843327    0.779280    2.930704
H       1.433671   -1.976949    3.934712
H      -0.854148   -2.411588    3.543754
H       0.228559   -2.961921    1.510281
