15

N      -0.019493   -1.162279   -0.159447
C      -0.030097   -0.007042   -0.140168
C      -0.015468    1.452703   -0.107325
C       1.400190    2.016565    0.179302
C       1.419312    3.501574    0.202750
C       1.686134    4.447791    1.136182
N       1.539665    5.712366    0.576689
C       1.193397    5.475316   -0.643653
O       1.096703    4.161404   -0.959309
H      -0.377513    1.833565   -1.067593
H      -0.717577    1.798453    0.658727
H       1.753912    1.648482    1.145790
H       2.092034    1.637315   -0.581119
H       1.976966    4.313318    2.166091
H       0.977001    6.179589   -1.431520
