23

C      -0.163659    1.457431    0.017624
C       0.108752   -0.050188   -0.003490
C       1.220353   -0.416123   -0.981135
O       0.513269   -0.555660    1.264643
C      -0.484840   -0.609054    2.271750
C      -0.222924   -1.825987    3.181871
C       0.524912   -1.203256    4.363361
O      -0.113026    0.052431    4.554426
C      -0.384356    0.587154    3.266029
H       0.733881    2.005352    0.322362
H      -0.457008    1.803627   -0.978859
H      -0.974041    1.712262    0.707192
H      -0.818148   -0.567284   -0.306665
H       2.154668    0.077388   -0.695103
H       1.389664   -1.495928   -0.979101
H       0.960827   -0.103076   -1.996711
H      -1.475224   -0.665258    1.803049
H      -1.170636   -2.250059    3.526563
H       0.338203   -2.594652    2.648073
H       0.442959   -1.765917    5.296701
H       1.592583   -1.072195    4.123815
H       0.432427    1.241250    2.930621
H      -1.304301    1.176181    3.337591
