16

N      -0.366825   -1.199200   -0.383698
C      -0.190242   -0.074656   -0.180405
C      -0.027700    1.351611    0.029815
C      -0.097054    1.867957    1.544992
C       1.423366    2.010819    1.440022
C       2.863548    2.578883    1.473872
C       2.750643    1.392274    0.420476
O       2.012349    0.633776    1.424463
C       1.418036    1.997689   -0.089504
H      -0.733356    1.875420   -0.618883
H      -0.628191    2.820262    1.598067
H      -0.471981    1.174432    2.298537
H       3.006529    3.596848    1.103232
H       3.475719    2.344920    2.345639
H       3.563276    0.886773   -0.105691
H       1.438552    2.934292   -0.647206
