17

C      -0.027600    1.500318    0.000026
C      -0.014596   -0.007562    0.033735
N      -0.008102   -0.717504    1.105620
O      -0.009703    0.059421    2.276136
C      -0.004402   -0.739754   -1.231472
C       0.003001   -0.178438   -2.496711
N       0.014601   -1.196243   -3.410685
C       0.015610   -2.407681   -2.758559
C       0.004421   -2.160297   -1.411837
H       0.897896    1.877493   -0.449280
H      -0.858103    1.857278   -0.617729
H      -0.125178    1.915195    1.000887
H      -0.019145   -0.618674    2.959251
H       0.003499    0.851496   -2.813494
H       0.020938   -1.074586   -4.407702
H       0.023207   -3.333785   -3.310362
H       0.001930   -2.891527   -0.620614
