14

O      -0.036837    0.037887   -0.401341
C      -0.016560    1.169372   -0.035462
O      -1.119494    1.848564    0.375170
C      -0.795030    3.153670    0.819166
C       0.041579    3.244027    2.057076
C       0.686713    3.378520    0.691131
C       1.224741    2.111711    0.049439
C       2.332850    1.475264    0.755343
N       3.212749    0.997004    1.330663
H      -1.554763    3.877351    0.556783
H      -0.034365    4.148136    2.649942
H       0.206854    2.335839    2.627875
H       1.096125    4.330727    0.381795
H       1.540643    2.304556   -0.982756
