12

N       0.023534    1.361795    0.115345
C      -0.040965    0.001911   -0.041565
N      -1.201613   -0.568684   -0.077086
O      -1.193244   -1.959321   -0.362020
C      -0.029868   -2.640566   -0.542081
N       0.020417   -3.883241   -0.807191
C       1.199413   -1.858608   -0.403674
N       1.219364   -0.601847   -0.170842
H       0.881128    1.700098    0.522488
H      -0.823545    1.813593    0.423636
H      -0.917973   -4.283235   -0.868049
H       2.133379   -2.406684   -0.506875
