17

N      -1.455134    0.319582    0.078277
C      -0.312044   -0.116808   -0.261478
O       0.032466   -1.390638   -0.435321
C      -0.745516   -2.529968   -0.095820
C      -1.786966   -2.592080    0.993170
C      -2.188390   -2.787235   -0.457172
N      -3.011502   -1.827384   -1.116578
C      -3.834185   -2.170839   -2.140101
O      -3.975207   -3.290995   -2.589037
H      -1.438521    1.334380    0.140862
H       0.565695    0.501631   -0.471875
H      -0.075948   -3.376305   -0.193522
H      -1.769231   -3.444361    1.664282
H      -2.086870   -1.656919    1.445653
H      -2.413126   -3.786618   -0.810720
H      -2.920382   -0.863913   -0.817018
H      -4.384911   -1.291334   -2.527735
