21

O       0.342007    1.230058   -0.435754
C       0.096048   -0.065575    0.072376
C      -1.379705   -0.497076    0.026661
C      -2.216892    0.179092    1.130854
C      -2.259603    1.639026    1.076214
C      -2.296344    2.841677    1.034315
C      -1.949378   -0.452994   -1.422904
C      -1.682982   -1.978031   -1.550170
C      -1.501915   -2.052649   -0.009153
H      -0.200963    1.852489    0.063344
H       0.688575   -0.743189   -0.552286
H       0.468919   -0.176148    1.105866
H      -3.244999   -0.201198    1.078824
H      -1.826930   -0.130076    2.110953
H      -2.345785    3.902131    0.998603
H      -3.016472   -0.213169   -1.440501
H      -1.429931    0.215628   -2.111271
H      -2.482168   -2.586404   -1.978677
H      -0.760505   -2.199712   -2.092354
H      -0.648508   -2.619391    0.375658
H      -2.403908   -2.406604    0.499268
