15

O      -0.048527    1.386458   -0.034698
C       0.001728   -0.032124    0.010913
C      -1.433097   -0.534194   -0.030678
N      -1.982958   -0.296303   -1.352856
C      -1.272441   -0.229803   -2.507203
O      -1.721889    0.010013   -3.592897
O       0.086071   -0.512350   -2.390680
C       0.751497   -0.563368   -1.189834
N       1.944894   -0.964140   -1.105472
H       0.857746    1.712077   -0.074016
H       0.507621   -0.396985    0.911084
H      -1.456554   -1.600377    0.232306
H      -2.024043    0.014534    0.706889
H      -2.955714   -0.060883   -1.458172
H       2.297602   -1.243686   -2.023910
