15

C      -0.007347    1.537608    0.004639
C       0.037265    0.020439   -0.050608
C      -1.105719   -0.651258    0.517017
N      -2.022305   -1.183988    0.981274
C       0.655382   -0.780757   -1.209646
C       1.910246   -0.069602   -1.699430
O       2.442837   -0.012677   -0.343144
C       1.335541   -0.763736    0.130241
H       0.985421    1.946029   -0.191865
H      -0.714636    1.941531   -0.725339
H      -0.316346    1.870013    0.999167
H       0.108933   -1.559847   -1.721931
H       2.543046   -0.706602   -2.325019
H       1.806929    0.920736   -2.153828
H       1.497190   -1.504568    0.903851
