16

C      -0.690081    0.718404   -0.128389
N       0.674977    0.166369   -0.129180
C       1.078904   -0.510317    1.025338
C       1.884319   -0.151336    2.075748
C       1.917885   -1.299016    2.914009
N       1.193170   -2.294179    2.447553
N       0.685766   -1.820295    1.269425
C      -0.027907   -2.647672    0.389542
O      -0.365984   -3.770931    0.631707
H      -0.862892    1.441901    0.680915
H      -0.869024    1.207884   -1.088708
H      -1.417404   -0.089909   -0.022435
H       1.345885    0.891897   -0.348339
H       2.363047    0.802505    2.229750
H       2.443581   -1.419329    3.851185
H      -0.219231   -2.122930   -0.560481
