16

C       0.200584    1.427556   -0.051504
C       0.047564   -0.080638    0.019735
O       0.943023   -0.792832   -0.884865
C       1.480209   -1.608172    0.177416
C       2.711767   -0.977121    0.838969
O       1.859472   -0.206006    1.736690
C       0.678141   -0.835113    1.237489
C      -1.340743   -0.506639   -0.218179
N      -2.431398   -0.857666   -0.370186
H       1.201484    1.702390    0.284584
H       0.051836    1.765230   -1.080323
H      -0.538607    1.918747    0.587583
H       1.448718   -2.675090   -0.040941
H       3.343473   -1.671083    1.405305
H       3.323214   -0.346204    0.187298
H       0.017837   -1.221381    2.013824
