22

C       0.357349    1.802304   -0.110796
C       0.076331    0.301553    0.050770
C       0.530695   -0.535780   -1.167591
C      -0.176168   -0.196542   -2.463375
C       0.404488    0.800112   -3.438281
C       0.396419   -0.669341   -3.776356
C       0.819194   -0.217774    1.285212
N       0.047728   -0.850868    2.216770
O       2.022514   -0.091743    1.417341
H       1.435311    1.971228   -0.179115
H      -0.120810    2.195052   -1.010589
H      -0.016313    2.366423    0.749930
H      -1.004001    0.152726    0.184711
H       1.613499   -0.411731   -1.285386
H       0.367362   -1.597655   -0.937779
H      -1.262407   -0.210378   -2.397274
H      -0.271645    1.456994   -3.974816
H       1.357233    1.254523   -3.187521
H       1.343310   -1.199086   -3.750666
H      -0.286361   -1.019661   -4.542557
H      -0.949179   -0.930888    2.128675
H       0.494553   -1.208750    3.045377
