16

O       0.044200    1.416654    0.121877
C       0.015658    0.003779    0.024557
C      -1.433629   -0.454589    0.032125
C      -1.476644   -1.977353   -0.120319
C      -0.547947   -2.569403   -1.175119
O      -0.697874   -3.671565   -1.624859
O       0.544663   -1.851726   -1.548504
C       0.655423   -0.446006   -1.290050
H       0.958207    1.699559    0.228808
H       0.549242   -0.462885    0.868603
H      -1.930074   -0.141364    0.954871
H      -1.955619    0.036881   -0.797649
H      -1.178426   -2.455454    0.822305
H      -2.481528   -2.343785   -0.339633
H       0.187832    0.110941   -2.112057
H       1.729031   -0.233017   -1.304163
