20

C       0.958364    0.204490    0.618025
N       2.244688   -0.354893    0.210542
C       2.402213   -0.885512   -1.234413
C       2.401180    0.550524   -1.792413
C       3.260605    0.533280   -0.488256
C       4.399824    1.460582   -0.164048
O       5.379120    1.087738   -1.156050
C       5.086183   -0.200213   -1.776362
C       3.935931   -0.766048   -0.962212
H       0.272125   -0.625375    0.815770
H       0.466844    0.888896   -0.089233
H       1.103387    0.742995    1.560129
H       1.834338   -1.758220   -1.562938
H       1.461709    1.100320   -1.760058
H       2.909669    0.730502   -2.740446
H       4.782439    1.287939    0.851930
H       4.187629    2.526606   -0.292523
H       5.985817   -0.819123   -1.704173
H       4.871260   -0.035838   -2.837828
H       4.260378   -1.397676   -0.133933
