15

C      -0.047167    1.519361    0.082596
C       0.007052    0.034392   -0.032280
C      -0.014340   -0.841699   -1.101217
C      -0.103567   -0.481239   -2.510737
O      -0.120235   -1.257011   -3.439549
N       0.063250   -2.163051   -0.658921
C       0.128557   -2.069499    0.630991
O       0.216816   -3.066541    1.521638
N       0.100195   -0.778246    1.081658
H       0.849589    1.919021    0.571478
H      -0.119910    1.978997   -0.903629
H      -0.914751    1.847097    0.668088
H      -0.158767    0.617638   -2.687440
H       0.222134   -3.887184    1.011620
H       0.137682   -0.487432    2.045064
