20

C      -0.304889    1.510827   -0.040481
C       0.075791    0.030789    0.116626
C       0.843932   -0.487845   -1.061454
N       0.184696   -0.818455   -2.379519
C       0.990381   -1.843798   -1.700368
C       2.449119   -1.584559   -2.125117
C       2.837547   -1.674008   -3.594123
C       2.279056   -0.186082   -1.451829
O       3.040861    0.699044   -1.185907
H       0.592304    2.122397   -0.169009
H      -0.943495    1.663266   -0.916115
H      -0.843408    1.870095    0.841186
H       0.686716   -0.095946    1.018802
H      -0.823345   -0.582868    0.261583
H      -0.796283   -0.991260   -2.154104
H       0.558957   -2.778893   -1.365469
H       3.143673   -2.154796   -1.494742
H       2.091623   -1.172796   -4.215010
H       3.806627   -1.193168   -3.759211
H       2.918959   -2.716355   -3.919565
