18

C      -0.148589    1.585982    0.008076
C       0.022899    0.062768   -0.007022
O      -1.272304   -0.560717    0.033129
C       0.843165   -0.446655   -1.184152
C       1.809464   -1.285368   -0.803445
C       1.872323   -1.417732    0.679725
C       2.219086   -0.131815    1.411449
C       0.778414   -0.506095    1.196942
H       0.814491    2.102135    0.046786
H      -0.670116    1.922324   -0.896499
H      -0.745236    1.885713    0.874283
H      -1.742211   -0.311309   -0.769925
H       0.642672   -0.129267   -2.202760
H       2.506452   -1.784816   -1.467774
H       2.111161   -2.369525    1.140166
H       2.599166   -0.215834    2.424779
H       2.656892    0.673505    0.830707
H       0.173168   -0.779241    2.052521
