21

C       0.459331    1.401272    0.236850
C      -0.295721    0.129748   -0.173785
C       0.347970   -0.528293   -1.370581
O       1.566829   -1.246379   -1.164362
C       0.418045   -1.989334   -1.631142
C      -0.122255   -3.042051   -0.676221
C       0.806584   -4.257074   -0.567648
C       0.495215   -2.411789   -3.015220
C       0.532543   -2.777621   -4.160018
H       1.494523    1.165161    0.500454
H       0.478814    2.132111   -0.578676
H      -0.013942    1.875803    1.101217
H      -0.329981   -0.564649    0.669683
H      -1.333698    0.376400   -0.431639
H       0.371209    0.103927   -2.261849
H      -0.257915   -2.593758    0.310669
H      -1.112223   -3.352437   -1.030855
H       0.398438   -4.994351    0.129556
H       0.936011   -4.741771   -1.539628
H       1.793374   -3.953039   -0.206424
H       0.574882   -3.094096   -5.172962
