19

C       0.043523    1.592153    0.121840
C      -0.002246    0.064453    0.028676
C       0.624347   -0.501667   -1.261210
C       0.729797   -2.045557   -1.311986
N       0.084712   -2.530977   -2.540511
C      -0.428283   -1.535126   -3.165219
N      -1.167252   -1.573058   -4.303618
C      -0.187452   -0.199726   -2.514291
O      -0.567308    0.861114   -2.954048
H       1.078591    1.952274    0.124610
H      -0.466459    2.054598   -0.726180
H      -0.432140    1.938508    1.044527
H       0.528333   -0.375324    0.881891
H      -1.039613   -0.286914    0.102439
H       1.613037   -0.044099   -1.397001
H       1.770193   -2.389799   -1.292385
H       0.236457   -2.508252   -0.447453
H      -1.151801   -2.409548   -4.862915
H      -1.299656   -0.692151   -4.775026
