20

C      -1.310971    1.043433    1.328341
C      -0.829777   -0.385268    1.215949
C       0.294356   -0.749436    0.313685
N       0.462581   -0.817502    1.766352
C       1.333518    0.138096    2.491919
C       2.277929   -0.727304    3.361426
O       2.958987   -1.687808    2.592861
C       2.081092    1.076942    1.655478
C       2.700587    1.853478    0.976976
H      -0.518828    1.760808    1.100641
H      -2.134888    1.213762    0.627488
H      -1.689659    1.255795    2.334945
H      -1.611991   -1.127258    1.374253
H       0.310704   -1.706850   -0.201058
H       0.791267    0.060916   -0.213619
H       0.701349    0.717402    3.178394
H       3.031812   -0.095746    3.840204
H       1.663516   -1.195341    4.146186
H       2.265556   -2.185569    2.140585
H       3.258219    2.535933    0.384127
