23

C      -0.133071    1.555929    0.037013
C       0.004079    0.019032    0.038356
C       0.775745   -0.399700    1.302940
C      -1.399231   -0.622201    0.063581
C       0.722273   -0.443034   -1.221865
C       1.615131   -1.669574   -1.346622
C       2.142241   -0.320702   -1.732519
O       1.737029    0.012453   -3.060529
C       0.342641   -0.037319   -2.653630
H       0.848593    2.039145   -0.003628
H      -0.719878    1.913583   -0.814255
H      -0.639061    1.894524    0.947377
H       0.279795   -0.000923    2.193846
H       0.820753   -1.487213    1.410987
H       1.800992   -0.013356    1.294169
H      -1.988677   -0.325307   -0.810916
H      -1.331046   -1.714870    0.067468
H      -1.953440   -0.313532    0.956681
H       1.992248   -2.069008   -0.411779
H       1.439853   -2.408815   -2.124622
H       3.040321    0.145237   -1.341989
H      -0.239012   -0.756044   -3.243794
H      -0.109687    0.956267   -2.736217
