12

N      -0.104114    1.229170   -0.429416
C      -0.031560    0.018815   -0.043615
N      -1.155082   -0.695833    0.310555
C      -1.096763   -2.010565    0.731925
C       0.073162   -2.643691    0.811006
O       1.261475   -2.023390    0.480443
C       1.286753   -0.731275    0.057619
O       2.329695   -0.213147   -0.224534
H       0.837881    1.560582   -0.639247
H      -2.034967   -0.207025    0.247035
H      -2.028922   -2.491542    0.989386
H       0.215187   -3.664077    1.127443
