19

C       0.097934    1.450161    0.109133
C      -0.050338   -0.068588   -0.004059
C      -1.532982   -0.537416    0.001311
N      -2.364095   -0.083205   -1.105627
C      -1.540987   -2.053425   -0.004771
O      -1.725162   -2.746657   -0.967772
O      -1.250271   -2.536352    1.246538
C      -1.166065   -3.897978    1.411808
N      -0.867001   -4.332611    2.552918
H       1.154022    1.734705    0.123835
H      -0.364473    1.970875   -0.736276
H      -0.362717    1.825966    1.029226
H       0.423569   -0.426293   -0.927136
H       0.470327   -0.548799    0.832018
H      -1.983467   -0.209553    0.946444
H      -2.212578    0.903388   -1.281880
H      -2.111940   -0.595550   -1.945649
H      -1.380674   -4.450171    0.496893
H      -0.844755   -5.351430    2.538131
