19

C       0.018034    1.444334   -0.034699
N      -0.028957   -0.003875    0.050440
C      -1.393692   -0.564587    0.006718
C      -1.294581   -1.801962    0.893705
N      -0.195163   -2.684945    0.338170
C       0.726348   -2.088900    1.328998
C       0.575193   -0.562476    1.249183
C      -0.373177   -1.352949    2.082880
O      -0.695275   -1.089234    3.396987
H       1.057815    1.785543   -0.014249
H      -0.416185    1.766907   -0.986798
H      -0.531288    1.957382    0.777858
H      -2.137683    0.134800    0.430116
H      -1.684076   -0.809958   -1.019937
H      -2.237406   -2.308446    1.099780
H      -0.385319   -3.641562    0.631597
H       1.650855   -2.568628    1.631098
H       1.358840    0.014739    1.725828
H      -0.943917   -1.916889    3.825039
