14

O      -0.404974    0.174948   -0.449984
C       0.017486    0.984891    0.342737
C       1.185280    1.800672    0.132344
C       2.161132    2.498733   -0.012757
C       3.307077    3.360752   -0.178362
N       3.869136    3.496024   -1.551155
C       3.925347    4.977751   -1.485382
C       3.082988    4.917103   -0.206828
O       2.494403    5.687683    0.476872
H      -0.481843    1.159325    1.317429
H       4.053799    3.137766    0.601134
H       4.764915    3.039936   -1.673978
H       4.913891    5.419923   -1.296209
H       3.467372    5.489459   -2.338216
