21

O       0.032705    1.420914   -0.340267
C       0.053914    0.076855    0.093024
C      -1.342945   -0.537826    0.067932
O      -1.786487   -0.378820   -1.282809
C      -1.353708   -2.004285    0.509087
C      -2.743536   -2.609366    0.517895
C      -3.363310   -3.149815   -0.767572
C      -2.941887   -4.085347    0.338259
O      -1.790055   -4.862016    0.184672
H      -0.498328    1.419124   -1.146174
H       0.721398   -0.539404   -0.532578
H       0.447788    0.068969    1.114537
H      -1.986275    0.055914    0.738371
H      -2.703805   -0.663607   -1.329917
H      -0.703316   -2.587953   -0.149018
H      -0.925735   -2.070168    1.518165
H      -3.435406   -2.134672    1.210232
H      -4.422064   -3.003727   -0.955494
H      -2.733351   -3.138423   -1.650989
H      -3.730946   -4.555494    0.925114
H      -1.979964   -5.552191   -0.458953
