23

C      -0.011732    0.589993   -2.329209
C       0.062624   -0.259253   -1.053973
C      -1.303370   -0.756878   -0.615619
C      -1.963745   -2.010660   -1.150315
C      -1.302298   -2.969468   -2.123725
O      -1.693651   -4.311244   -1.903821
C      -1.523398   -1.945063    0.303566
C      -0.404130   -2.816778    0.822820
O      -0.756434   -4.209579    0.851788
H       0.974897    0.973170   -2.607258
H      -0.396818    0.005441   -3.170883
H      -0.677309    1.449301   -2.192016
H       0.755130   -1.090298   -1.217040
H       0.496579    0.340578   -0.243121
H      -1.993631    0.065606   -0.436336
H      -3.038710   -1.948568   -1.299202
H      -1.613656   -2.721990   -3.145068
H      -0.207082   -2.865129   -2.098524
H      -1.404726   -4.531539   -1.004378
H      -2.328498   -1.821713    1.026589
H       0.483207   -2.767675    0.189448
H      -0.102629   -2.489409    1.827884
H      -1.552900   -4.298753    1.386627
