19

O       0.028052    1.437236    0.075301
C       0.045906    0.034050   -0.012948
C       0.539374   -0.608634    1.303855
O      -0.517156   -0.126860    2.200898
C      -1.340422   -1.094687    1.484846
C      -0.113902   -2.023940    1.318195
C      -0.224958   -2.782927   -0.006438
C      -1.292817   -1.960178   -0.794706
C      -1.366587   -0.641976   -0.009373
H      -0.343542    1.626822    0.948594
H       0.638436   -0.224446   -0.894395
H       1.549012   -0.388028    1.650942
H      -2.267648   -1.356366    1.993670
H       0.158235   -2.598221    2.203293
H       0.733715   -2.829132   -0.532913
H      -0.546060   -3.815794    0.153980
H      -1.023068   -1.803179   -1.843027
H      -2.259790   -2.475463   -0.784058
H      -2.163693    0.040308   -0.304480
