29

C      -0.015499    1.685098    0.164944
C       0.042807    0.164798   -0.019999
C       0.651893   -0.543802    1.197216
C       0.719407   -2.095230    1.169993
C      -0.708951   -2.674139    1.134636
C       1.480132   -2.615281   -0.077064
C       2.937108   -2.163293   -0.230713
C       1.420829   -2.526753    2.487669
C       1.664362   -4.026798    2.692896
H       0.984628    2.105330    0.320521
H      -0.450364    2.177770   -0.710506
H      -0.623697    1.955047    1.035606
H      -0.969725   -0.210111   -0.210409
H       0.626425   -0.062874   -0.919957
H       1.663975   -0.148263    1.355476
H       0.082179   -0.250129    2.090252
H      -1.240688   -2.379103    0.224997
H      -0.698669   -3.768150    1.156994
H      -1.296979   -2.328155    1.992487
H       1.448677   -3.711473   -0.068265
H       0.920483   -2.319840   -0.972661
H       3.024606   -1.074185   -0.297513
H       3.559087   -2.493372    0.607281
H       3.371701   -2.581870   -1.144174
H       2.382149   -2.003384    2.561138
H       0.818064   -2.150598    3.324943
H       2.324231   -4.445637    1.926635
H       2.141393   -4.201715    3.662696
H       0.733964   -4.602646    2.680832
