21

C      -0.177756    1.510978   -0.240346
C      -0.016899    0.025192   -0.013650
C       1.299342   -0.675421   -0.194686
C       0.701787   -0.569671    1.197062
C       1.328412    0.222249    2.276469
C       1.029394    0.172234    3.575681
C       1.934380    1.070353    4.363785
O       2.782581    1.682866    3.395151
C       2.500693    1.164307    2.102455
H       0.741901    2.062730   -0.030820
H      -0.447810    1.712055   -1.282995
H      -0.966839    1.927752    0.394957
H      -0.889783   -0.551986   -0.309146
H       1.326631   -1.649804   -0.670179
H       2.164337   -0.056560   -0.412183
H       0.233158   -1.477148    1.566891
H       0.260383   -0.439625    4.031355
H       1.390312    1.849815    4.920877
H       2.540186    0.515557    5.099975
H       3.381404    0.634506    1.701702
H       2.294333    2.001038    1.418813
