19

C       0.097330    1.552055    0.207446
C       0.048393    0.035881    0.123055
C       0.363320   -0.490488   -1.278298
O       0.406152   -1.911085   -1.295488
C       1.339972   -2.414132   -0.357712
C       1.028507   -1.895058    1.049175
O       1.003340   -0.480521    1.049098
C       1.297749   -3.928728   -0.444591
O       1.791286   -4.655242    0.378121
H       1.086312    1.921649   -0.080249
H      -0.650296    2.000621   -0.453646
H      -0.103792    1.877849    1.230910
H      -0.954130   -0.328961    0.405736
H      -0.410394   -0.194447   -1.992405
H       1.330517   -0.078924   -1.611736
H       2.361974   -2.088033   -0.627445
H       0.058577   -2.300614    1.379094
H       1.799911   -2.214524    1.752457
H       0.767596   -4.311916   -1.343760
