13

C       0.273005   -1.087321    0.085541
C       0.080911    0.098281    0.049741
C      -0.154644    1.555729    0.004182
O      -0.748718    2.026652    1.192365
C       0.326906    2.279222    2.095329
C       1.564460    2.450551    1.175616
O       1.048245    2.275348   -0.143069
H       0.436882   -2.136820    0.111218
H      -0.811603    1.812967   -0.831911
H       0.079966    3.179268    2.663210
H       0.457268    1.441191    2.790279
H       2.010299    3.446529    1.228575
H       2.333899    1.701030    1.395684
