20

C      -0.026086    1.273806   -0.618679
C       0.010229   -0.000586    0.232324
C      -1.361141   -0.619872    0.389896
N      -1.901718   -1.386507   -0.751306
C      -1.620130   -2.081516    0.515585
C      -0.539816   -3.125099    0.468059
C      -0.694134   -4.295075   -0.432948
N       0.303795   -3.252292   -0.726364
H       0.972093    1.709792   -0.721494
H      -0.406294    1.054989   -1.621371
H      -0.677011    2.034073   -0.171787
H       0.695668   -0.728168   -0.210646
H       0.402394    0.228619    1.231860
H      -2.075451    0.021695    0.907856
H      -2.897044   -1.224573   -0.867951
H      -2.473865   -2.358245    1.134346
H      -0.006398   -3.264771    1.406839
H      -0.287040   -5.261853   -0.150224
H      -1.586668   -4.336302   -1.052659
H      -0.094135   -2.632799   -1.432898
