17

C      -0.081306    1.524329   -0.219942
C      -0.043233    0.035429    0.010134
N       1.251127   -0.637575   -0.138660
C       0.629920   -0.603403    1.193155
C       1.353972    0.159931    2.225960
C       2.564981    0.816097    2.241114
N       2.760210    1.363669    3.473678
N       1.741062    1.086914    4.232436
N       0.884247    0.359043    3.484402
H       0.794972    2.009778    0.214778
H      -0.096950    1.743701   -1.292397
H      -0.979561    1.961816    0.228582
H      -0.918513   -0.505004   -0.350086
H       1.147871   -1.558033   -0.555271
H       0.162993   -1.518894    1.555743
H       3.285815    0.907361    1.446514
H       0.018448    0.046184    3.894040
