19

C      -0.078115    1.533636    0.019220
C       0.072769    0.024250   -0.060177
O       1.153827   -0.503889   -0.188602
C      -1.216981   -0.781248    0.023939
C      -0.995000   -2.289009    0.114488
C      -2.309577   -3.075605   -0.045779
O      -2.960923   -2.772847   -1.280289
C      -2.085647   -4.516049    0.103749
C      -1.872272   -5.696153    0.187302
H       0.881682    2.013957   -0.174346
H      -0.827265    1.889412   -0.696234
H      -0.431581    1.819992    1.016762
H      -1.808280   -0.410947    0.872824
H      -1.818159   -0.548814   -0.865349
H      -0.289357   -2.604848   -0.660746
H      -0.532925   -2.553960    1.071078
H      -3.018711   -2.745657    0.724508
H      -2.474871   -3.225844   -1.978781
H      -1.697790   -6.740389    0.273165
