20

C      -0.134011    1.517266    0.002788
C       0.024891   -0.009592    0.014078
C       0.739824   -0.448180   -1.260380
O       0.789116   -1.864019   -1.509211
C       1.545901   -2.667159   -0.717979
N       1.639182   -2.750842    0.539167
C       0.790316   -1.991639    1.453629
C       0.775419   -0.470302    1.279234
O       2.094276    0.068978    1.324393
H       0.844997    2.002816    0.047282
H      -0.652969    1.860762   -0.897755
H      -0.711429    1.851570    0.870042
H      -0.969705   -0.475698    0.027232
H       0.227863   -0.045553   -2.137275
H       1.765005   -0.057369   -1.255284
H       2.109407   -3.372003   -1.332628
H      -0.240407   -2.365071    1.376047
H       1.136959   -2.216635    2.467163
H       0.248012   -0.053640    2.148010
H       2.697455   -0.608650    0.999315
