12

O       0.138926    1.369928   -0.136544
C       0.113742   -0.003304   -0.078311
C      -0.021858   -0.667157    1.332436
O      -1.436740   -0.183400    1.357314
C      -1.304420   -0.701024   -0.038565
C      -2.409989   -0.591526   -0.937694
N      -3.278436   -0.523954   -1.698100
C      -0.595593   -1.921486    0.647070
O      -0.609959   -3.100376    0.684573
H      -0.526497    1.695699    0.487188
H       0.850960   -0.409477   -0.772978
H       0.570473   -0.532628    2.232714
