23

C       0.233699    1.502287    0.274202
C      -0.168754    0.079273   -0.139505
C       0.610641   -0.455783   -1.336442
C       0.390989    0.331343   -2.616996
C       1.979690   -1.040008   -1.104115
C       0.829790   -1.978531   -1.463773
C       0.315425   -2.954850   -0.409356
C       0.828452   -2.553716   -2.785325
C       0.807529   -3.082769   -3.866584
H       1.305475    1.559658    0.492741
H       0.013206    2.235074   -0.507202
H      -0.308845    1.808378    1.174032
H      -0.034335   -0.578529    0.723054
H      -1.241335    0.059151   -0.375086
H       0.755104    1.358319   -2.511487
H       0.909480   -0.124156   -3.462274
H      -0.675111    0.378072   -2.868218
H       2.748969   -0.874541   -1.850411
H       2.350230   -1.102204   -0.085102
H       0.444597   -2.571674    0.604490
H      -0.745753   -3.177088   -0.560894
H       0.866435   -3.897586   -0.479819
H       0.795375   -3.539127   -4.824957
