21

C      -0.380732    1.491016    0.276079
C       0.161828    0.090193   -0.039551
C       0.949431   -0.500505    1.100707
C       2.289193    0.075301    1.532423
O       2.878359   -0.890424    2.390869
C       2.333502   -2.187810    2.129137
C       2.286026   -2.961798    3.437885
C       0.987972   -1.913370    1.485560
O       0.197684   -0.979683    2.233381
H       0.428657    2.206021    0.456304
H      -0.980657    1.871814   -0.555360
H      -1.012301    1.464897    1.168892
H      -0.670014   -0.583634   -0.269846
H       0.800371    0.126390   -0.931372
H       2.911024    0.259549    0.640102
H       2.202016    1.012075    2.092851
H       2.960150   -2.722918    1.393655
H       1.595288   -2.474098    4.129995
H       1.954628   -3.990982    3.266484
H       3.279031   -2.990945    3.893974
H       0.447286   -2.697142    0.960529
