17

C       0.086683    1.511683    0.060606
C      -0.003309    0.022249   -0.022102
C      -1.074259   -0.774866    0.003359
C      -2.523772   -0.431285    0.122599
C      -0.624692   -2.209311   -0.112700
O       0.793265   -2.172298   -0.207747
C       1.237920   -0.822962   -0.156960
H       0.692772    1.824320    0.920667
H       0.573006    1.928813   -0.830621
H      -0.895569    1.980629    0.155749
H      -3.089645   -0.796710   -0.744032
H      -2.970743   -0.902946    1.007211
H      -2.688403    0.646129    0.199133
H      -0.928078   -2.810769    0.761091
H      -1.048814   -2.706165   -1.001808
H       1.808028   -0.579793   -1.069703
H       1.927526   -0.685343    0.693223
