19

O       0.111740   -0.116694    0.445419
C       0.058637    1.015209    0.020579
C       1.245218    1.902976   -0.047269
C       1.471813    2.898252   -1.193481
C       0.444140    3.094898   -2.310213
C      -0.633910    4.104911   -1.901981
O      -1.129504    3.837074   -0.598455
C      -0.164559    4.123090    0.399773
C       1.158967    3.410553    0.180343
H      -0.894816    1.451800   -0.333611
H       2.138650    1.417960    0.332636
H       2.507939    2.951981   -1.510222
H       0.953680    3.464249   -3.206204
H      -0.022385    2.145354   -2.590531
H      -0.226611    5.128824   -1.938152
H      -1.494645    4.059214   -2.574439
H       0.028661    5.209305    0.424953
H      -0.620015    3.843327    1.354794
H       1.975789    3.826940    0.762741
