21

C      -0.033668    1.570783    0.033550
C       0.039665    0.040407   -0.000516
C       0.693610   -0.489065   -1.289683
C       0.724086   -2.022810   -1.327921
C       1.436004   -2.609682   -0.089859
C       0.829347   -2.048972    1.183424
O       0.420843   -2.732004    2.094552
C       0.770707   -0.514682    1.234660
O       2.102928    0.005617    1.227903
H       0.969408    2.004915    0.029003
H      -0.578430    1.951434   -0.836231
H      -0.549003    1.922781    0.933503
H      -0.983854   -0.359601    0.049598
H       0.146381   -0.105100   -2.157858
H       1.714598   -0.095693   -1.358439
H      -0.302894   -2.409196   -1.366922
H       1.223526   -2.374076   -2.236852
H       1.382019   -3.700186   -0.057833
H       2.491926   -2.313081   -0.114571
H       0.241401   -0.228283    2.153263
H       2.516607   -0.229480    2.064702
