18

O      -0.265118    0.032862   -0.346132
C      -0.025584    1.166165   -0.014485
C       1.344735    1.808094   -0.073542
C       1.365993    2.932089   -1.101999
C       1.412386    2.565527   -2.604556
O       2.512298    3.476746   -2.837465
C       2.567032    3.855961   -1.452714
C       1.658677    5.059644   -1.130942
N       0.557969    4.124913   -0.750789
H      -0.832096    1.842564    0.346983
H       1.568801    2.237627    0.910459
H       2.084083    1.040073   -0.317079
H       1.700033    1.529120   -2.822027
H       0.518853    2.820031   -3.189272
H       3.574617    3.802547   -1.035065
H       1.973487    5.687364   -0.289697
H       1.476458    5.691871   -2.005887
H      -0.301044    4.232928   -1.280738
