20

C      -0.072655    1.551040   -0.098927
C      -0.071459    0.018871   -0.005037
C      -1.486015   -0.532182   -0.191139
C       0.953421   -0.576440   -1.068991
N       2.312379   -0.527914   -0.449207
C       2.034497   -0.530891    0.780624
O       2.665040   -0.140073    1.930236
C       1.332604    0.244002    2.467195
C       0.636438   -0.493749    1.280615
H       0.939159    1.961113   -0.023769
H      -0.487531    1.871193   -1.060369
H      -0.685043    1.997175    0.692093
H      -1.875248   -0.278674   -1.183532
H      -1.505433   -1.623089   -0.095091
H      -2.177497   -0.115371    0.549246
H       0.685038   -1.606037   -1.341832
H       0.960997    0.015377   -1.989516
H       1.180763   -0.180597    3.460465
H       1.246916    1.332248    2.483843
H       0.244182   -1.462170    1.602658
