13

N      -0.076893   -1.196537   -0.118830
C      -0.038684   -0.043361   -0.047665
C      -0.033651    1.410031    0.038315
C       0.021593    2.114656    1.421104
C       1.485624    1.628652    1.467592
N       1.353661    2.103273    0.001835
C       0.592743    3.298580    0.615113
H      -0.724912    1.823845   -0.700617
H      -0.742767    2.105785    2.203460
H       2.199651    2.220806    2.043269
H       1.678988    0.559205    1.566697
H      -0.060963    3.813069   -0.094026
H       1.250062    3.997230    1.135672
