23

C       0.294388    1.574051   -0.135894
C       0.006274    0.088405    0.089064
O       0.459203   -0.665338   -1.035069
C       1.316878   -1.750206   -0.626316
C       0.634516   -3.081077   -0.981553
C       2.655151   -1.612914   -1.365502
C       1.444593   -1.552080    0.864490
C       0.708925   -0.526104    1.280996
C       0.525144   -0.010706    2.672295
H       1.372642    1.754344   -0.184874
H      -0.153710    1.899021   -1.078934
H      -0.128996    2.182429    0.670347
H      -1.086969   -0.037560    0.191180
H       0.467226   -3.141096   -2.061408
H       1.254021   -3.933176   -0.681853
H      -0.331478   -3.162205   -0.476004
H       3.129594   -0.659226   -1.120611
H       3.338952   -2.423128   -1.090845
H       2.493224   -1.652771   -2.447115
H       2.055515   -2.196375    1.486510
H       1.075428   -0.614583    3.398317
H       0.868280    1.026821    2.765056
H      -0.534327   -0.015855    2.959041
