16

O       0.116800    1.562103    0.078201
C       0.061850    0.156783   -0.063197
C       0.702528   -0.348910   -1.334709
C       0.176485   -1.591855   -2.007826
C      -0.053578   -0.241553   -2.632982
C       0.692044   -0.493617    1.173604
F       0.070702   -0.127845    2.297458
F       0.661408   -1.830683    1.104796
F       1.984185   -0.118590    1.285615
H       1.045984    1.819999    0.081444
H      -1.001535   -0.105651   -0.050204
H       1.777628   -0.193033   -1.376328
H       0.894555   -2.262664   -2.464949
H      -0.668161   -2.095209   -1.550218
H      -1.054301    0.175788   -2.598172
H       0.504042    0.018079   -3.525464
