20

C      -0.003215    1.487043    0.269309
C       0.000998    0.031982   -0.214652
C      -1.365920   -0.611292   -0.115745
C      -1.613844   -2.110488   -0.124338
C      -0.482170   -3.071361    0.200578
C      -0.043999   -2.715824    1.633298
O       0.905708   -3.156141    2.240197
N      -0.925239   -1.765070    2.095937
C      -1.880049   -1.305805    1.132072
H       0.987322    1.940334    0.167530
H      -0.709937    2.094283   -0.306880
H      -0.295546    1.550852    1.322775
H       0.337103   -0.007543   -1.258736
H       0.737399   -0.537927    0.360695
H      -2.142474   -0.056378   -0.640169
H      -2.444488   -2.478750   -0.713908
H      -0.815952   -4.113444    0.175697
H       0.385243   -2.996674   -0.461621
H      -0.720768   -1.274124    2.952204
H      -2.882184   -1.118716    1.502020
