17

C       0.020419    1.449377    0.106218
N      -0.128959    0.023531   -0.093237
C       0.552677   -0.649507   -1.098092
C       1.157182    0.022764   -2.171882
C       1.791882   -0.694957   -3.182859
C       1.850283   -2.084178   -3.150838
C       1.256954   -2.756246   -2.081275
C       0.617697   -2.054553   -1.070576
H       1.068356    1.768708    0.222027
H      -0.408606    2.006402   -0.734365
H      -0.529564    1.738473    1.004632
H      -0.246155   -0.509974    0.753221
H       1.132017    1.104482   -2.220932
H       2.250634   -0.152062   -4.003568
H       2.349149   -2.635096   -3.939929
H       1.292378   -3.840173   -2.032844
H       0.154579   -2.588739   -0.245133
