17

C      -0.113237    1.426638    0.775882
C       0.093087   -0.022747    0.394569
C       0.291426   -0.422338   -1.028784
N       1.370767   -0.567267   -0.072452
C       2.537607    0.291145   -0.224271
C      -0.278791   -1.692592   -1.601365
F      -1.455726   -1.445849   -2.205177
F       0.537852   -2.221198   -2.527098
F      -0.487510   -2.623450   -0.665460
H       0.347751    2.120095    0.069117
H      -1.184274    1.649939    0.809715
H       0.298487    1.628112    1.770548
H      -0.438580   -0.728969    1.029335
H       0.351450    0.374644   -1.769863
H       2.322594    1.294258   -0.621406
H       3.028421    0.401950    0.747222
H       3.239836   -0.198513   -0.905296
