17

C      -0.553170    1.381817   -0.096471
C      -0.114317   -0.059700   -0.010337
C       1.248170   -0.469432   -0.457880
N       0.889985   -0.512592    0.962334
C       1.476609    0.353971    1.873810
C       0.973299    1.130143    2.899394
N       2.015368    1.693395    3.572717
N       3.137483    1.315758    3.040706
N       2.819878    0.502235    2.000050
H       0.290443    2.069722   -0.001277
H      -1.036584    1.560256   -1.062279
H      -1.275585    1.624160    0.689320
H      -0.914398   -0.787143   -0.131105
H       1.418617   -1.435382   -0.924095
H       1.914827    0.326403   -0.785958
H      -0.051719    1.302337    3.181377
H       3.551917    0.063705    1.465235
