25

C       0.922216    1.484067    0.021812
C       0.237015    0.113943   -0.060658
C       0.780081   -0.724645   -1.200606
C       1.995897   -1.610612   -1.030438
C       0.643240   -2.229790   -1.304364
C      -0.041651   -3.026378   -0.200869
C       0.509018   -4.446942   -0.004389
C       0.395178   -2.801772   -2.692198
O       1.048860   -2.007162   -3.672235
H       2.000140    1.373448    0.179795
H       0.781709    2.051196   -0.904885
H       0.518718    2.082698    0.844806
H       0.366394   -0.405209    0.895451
H      -0.844868    0.256404   -0.187215
H       0.735125   -0.222911   -2.163418
H       2.735321   -1.621308   -1.822666
H       2.400703   -1.723633   -0.028073
H       0.053027   -2.486447    0.745575
H      -1.119815   -3.080504   -0.408450
H       0.024193   -4.935233    0.846936
H       0.342439   -5.080850   -0.880787
H       1.586665   -4.425017    0.188881
H       0.763691   -3.838450   -2.735378
H      -0.692692   -2.833914   -2.876698
H       0.915614   -2.421128   -4.528852
