17

O       0.234929    1.266849   -0.414818
C       0.112903   -0.067913   -0.006542
C       0.236249   -0.338219    1.557066
C      -1.270382   -0.704069    1.563998
C      -2.379651    0.364532    1.667213
O      -2.417892    0.478643    0.199543
C      -1.383390   -0.506742    0.092287
C      -1.797089   -1.991448    0.040715
O      -1.667814   -2.089049    1.504365
H       1.162180    1.516537   -0.343674
H       0.726537   -0.744224   -0.618939
H       0.887211   -1.171455    1.827972
H       0.507595    0.548866    2.135408
H      -3.331580    0.010385    2.075034
H      -2.095937    1.315289    2.131769
H      -2.823640   -2.171417   -0.292881
H      -1.109398   -2.676866   -0.468941
