21

C       0.019215    1.516845    0.093917
C       0.072400    0.027505   -0.012668
C      -0.080925   -0.742409   -1.098056
C      -0.037416   -2.181536   -0.712213
C       0.565626   -2.280877    0.665197
C       0.114614   -0.884016    1.202779
C      -1.329601   -1.505063    1.362989
C      -0.885413   -2.679709    0.494250
C      -1.526278   -4.037276    0.481987
H       0.918528    1.914046    0.582574
H      -0.068438    1.987516   -0.889408
H      -0.833553    1.847738    0.701877
H      -0.259909   -0.393629   -2.108404
H       0.185388   -2.950180   -1.444400
H       1.440269   -2.859921    0.939867
H       0.570447   -0.475873    2.104903
H      -1.494019   -1.844629    2.389865
H      -2.178348   -0.891027    1.039667
H      -2.519946   -4.003502    0.018849
H      -0.923841   -4.756556   -0.083398
H      -1.648445   -4.432055    1.497742
