18

N       0.032143   -1.148522   -0.074881
C       0.032401    0.005186   -0.028212
C      -0.027422    1.471729    0.039696
C      -0.847030    1.950546    1.248877
C      -0.970487    3.481932    1.196241
C       0.328074    4.162228    0.793786
C       1.630095    3.952101    1.535676
C       1.431723    3.341117    0.174262
O       1.309973    1.940916    0.115076
H      -0.508699    1.826958   -0.886964
H      -1.837208    1.485912    1.240530
H      -0.334016    1.614317    2.155708
H      -1.734566    3.740110    0.452189
H      -1.330571    3.864793    2.157516
H       0.194441    5.152410    0.368366
H       2.304016    4.795031    1.639979
H       1.642970    3.254829    2.366298
H       1.981647    3.738035   -0.674895
