25

C       1.002816    1.542703    0.242047
C       0.174513    0.270200    0.015667
C       0.506016   -0.458393   -1.283481
C       0.265182    0.331256   -2.567616
C      -1.201519    0.707672   -2.811390
C       1.690905   -1.399333   -1.281402
C       0.291921   -1.957159   -1.397545
C      -0.295785   -2.823775   -0.314683
O       0.137486   -4.159633   -0.551874
H       2.075257    1.322528    0.212066
H       0.799231    2.305075   -0.516093
H       0.776742    1.983427    1.218071
H       0.340717   -0.403239    0.862278
H      -0.893285    0.523470    0.040121
H       0.880042    1.240036   -2.562946
H       0.625224   -0.266389   -3.413600
H      -1.583848    1.380646   -2.037375
H      -1.319004    1.216201   -3.773428
H      -1.840000   -0.182330   -2.822362
H       2.338635   -1.432225   -2.151365
H       2.208340   -1.557885   -0.339655
H       0.005679   -2.301953   -2.388695
H       0.027023   -2.481396    0.679486
H      -1.396311   -2.760894   -0.339469
H      -0.286427   -4.728144    0.098036
