14

O      -0.010192    1.374388    0.008255
C      -0.037419    0.025958    0.001433
C      -1.267715   -0.576248    0.005462
C      -1.539455   -1.965401   -0.000166
C      -0.692616   -3.033596   -0.010394
C       0.759150   -3.043546   -0.018404
O       1.408067   -4.085171   -0.027256
C       1.537318   -1.767963   -0.016899
N       1.214501   -0.522339   -0.008763
H       0.925363    1.620981    0.004071
H      -2.116312    0.099303    0.013827
H      -2.599821   -2.207248    0.004556
H      -1.122579   -4.030945   -0.013119
H       2.609412   -1.978729   -0.024288
