21

C       0.092247    1.542124   -0.046276
C      -0.016671    0.040289    0.062386
C      -1.291755   -0.615413   -0.479962
C      -2.171054   -1.165567    0.643936
C      -2.373835   -2.650670    0.813780
C      -1.452714   -1.908331    1.749080
C       0.067999   -2.013616    1.613332
C       0.678622   -0.702003    1.127326
O       1.200323   -0.679085   -0.210237
H       1.024773    1.898176    0.398923
H       0.072528    1.854925   -1.096501
H      -0.747374    2.029829    0.461797
H      -1.857874    0.100318   -1.083579
H      -0.984276   -1.420914   -1.154001
H      -2.997124   -0.526981    0.941210
H      -3.325610   -3.003842    1.196299
H      -1.920606   -3.307758    0.076548
H      -1.815636   -1.749203    2.759628
H       0.510841   -2.305014    2.569914
H       0.338826   -2.791538    0.892079
H       1.284437   -0.144143    1.841983
