16

C      -0.557118   -1.169406   -0.557367
C      -0.328881   -0.016256   -0.305334
C      -0.058273    1.366684    0.021758
C      -0.112209    1.779445    1.541964
C       1.366341    2.244287    1.472061
N       2.310392    1.328129    2.129016
C       2.799303    0.614309    1.202423
O       2.421995    0.815637   -0.089790
C       1.431984    1.852489   -0.034720
H      -0.757397   -2.186490   -0.787239
H      -0.686000    2.020466   -0.592560
H      -0.836398    2.568603    1.753485
H      -0.270722    0.948259    2.229230
H       1.565585    3.277213    1.764262
H       3.531403   -0.174551    1.331800
H       1.661351    2.589192   -0.804933
