15

C      -0.153315    1.241728   -0.407754
C       1.269849    1.041978    0.015572
N       0.299075   -0.021742    0.157271
C      -0.106631   -0.497996    1.386751
C      -1.457362   -0.835560    1.624586
N      -1.852895   -1.353758    2.770783
N      -0.943018   -1.575195    3.730809
C       0.314607   -1.243917    3.461799
N       0.797934   -0.703462    2.336870
H      -0.778795    1.875517    0.216495
H      -0.421271    1.217996   -1.459564
H       2.038403    0.878455   -0.733328
H       1.604667    1.528176    0.927293
H      -2.219912   -0.678075    0.867584
H       1.029083   -1.431182    4.259207
