19

C       0.079206    1.531873    0.097093
O       1.243977    0.686674    0.102815
C      -0.024978    0.075974    0.027882
C      -0.608007   -0.900038    1.090089
C      -1.431954   -1.430745   -0.063716
C      -2.655657   -1.698256   -0.503163
C      -2.725034   -1.418843   -2.003276
C      -1.520288   -0.446969   -2.247876
C      -0.539557   -0.823511   -1.121884
H      -0.126088    2.047384    1.034467
H      -0.054187    2.131295   -0.802446
H       0.166032   -1.592589    1.440148
H      -1.132226   -0.481892    1.952659
H      -3.516583   -1.996866    0.083855
H      -2.621650   -2.337413   -2.598383
H      -3.682053   -0.971633   -2.293645
H      -1.099497   -0.536201   -3.252999
H      -1.862754    0.586143   -2.120319
H       0.268653   -1.487325   -1.456935
