17

O       0.102539    1.385981    0.185119
C       0.085438    0.031235    0.018080
C       0.101094   -0.735774   -1.133071
C       0.070903   -0.694223   -2.629806
C       0.394116   -2.178428   -2.996300
C      -0.005224   -3.018827   -1.757108
N       0.084376   -2.026764   -0.702851
N       0.045631   -2.168559    0.621635
C       0.055511   -0.907187    1.074786
H       0.119756    1.807777   -0.678619
H      -0.917627   -0.400623   -3.006784
H       0.798289   -0.005523   -3.071082
H      -0.121626   -2.507722   -3.900208
H       1.468674   -2.280500   -3.170010
H      -1.027069   -3.411563   -1.830943
H       0.669997   -3.856293   -1.566434
H       0.050036   -0.703829    2.135006
