16

C       0.055970    1.471259   -0.098711
C       0.024828   -0.018280   -0.035783
O       0.605859   -0.814827   -1.117135
C       0.122160   -1.835645   -0.201562
C       0.450954   -1.026557    1.083095
O      -0.883997   -1.143783    1.647448
C      -1.156594   -1.034204    0.213899
C      -2.559928   -1.067160   -0.289320
H       1.086346    1.836131   -0.148748
H      -0.482280    1.834430   -0.979645
H      -0.418336    1.883473    0.797272
H       0.267396   -2.886104   -0.451403
H       1.313297   -1.045630    1.748660
H      -3.142140   -0.239851    0.128100
H      -2.557646   -0.979652   -1.380195
H      -3.048747   -2.006748   -0.014475
