17

C      -0.157136    1.631586   -0.026129
C       0.065910    0.113759   -0.012449
C       0.950075   -0.367653   -1.195208
O       1.699929   -1.464933   -0.674356
C       1.704798   -1.399633    0.693543
N       2.305189   -2.185647    1.478524
N       0.947535   -0.301650    1.083354
C      -1.223875   -0.594353    0.018499
C      -2.280685   -1.164762    0.069785
H       0.806519    2.146392   -0.005012
H      -0.709583    1.928380   -0.922332
H      -0.740847    1.940864    0.844705
H       0.367443   -0.709774   -2.050951
H       1.634330    0.431547   -1.503706
H       2.830877   -2.879688    0.952217
H       0.561777   -0.361804    2.014365
H      -3.209166   -1.679252    0.114501
