21

O      -0.009974    1.434325   -0.110013
C       0.013622    0.024678    0.024273
C       0.376702   -0.540297    1.428928
C      -0.663139    0.260031    2.243065
C      -1.861767   -0.461914    1.581143
C      -1.576780   -1.866962    2.165543
C      -0.262482   -2.028336    1.365975
C      -0.915234   -2.078264   -0.041323
C      -1.393858   -0.609850    0.036882
H       0.894758    1.755153   -0.033243
H       0.630071   -0.398794   -0.777694
H       1.423007   -0.486410    1.734112
H      -0.627203    0.097393    3.322397
H      -0.599221    1.327383    2.038847
H      -2.854159   -0.039229    1.732848
H      -1.467090   -1.842390    3.252354
H      -2.304337   -2.643080    1.914589
H       0.404930   -2.843998    1.643380
H      -0.235943   -2.254069   -0.878802
H      -1.710958   -2.824488   -0.092586
H      -2.095070   -0.252338   -0.715869
