21

C      -0.186189    1.454781   -0.046812
C       1.342419    1.610747   -0.267286
C       1.551522    0.285383    0.523668
C       0.051456   -0.047211    0.264550
C       2.595649   -0.692759    0.062406
C       4.089067   -0.589555    0.350172
C       4.318918   -0.163396    1.795863
O       3.418561   -1.193523    2.287251
C       3.257335   -1.699129    0.956703
H      -0.524159    2.001355    0.838434
H      -0.848218    1.703572   -0.879495
H       1.611402    1.488508   -1.321955
H       1.828942    2.513825    0.110425
H       1.695272    0.498018    1.586383
H      -0.516315   -0.502331    1.079509
H      -0.068310   -0.667317   -0.630645
H       2.426331   -1.089472   -0.939013
H       4.842048   -0.615792   -0.425895
H       5.339684   -0.354937    2.145471
H       4.008911    0.843890    2.097632
H       3.249203   -2.775721    0.827091
