21

O       0.211948    0.067325   -0.263595
C       0.023665    1.230570   -0.050997
C      -1.220708    2.067380    0.289825
C      -0.253905    3.191499    0.771501
C       0.964853    2.437656    0.140729
C       2.231285    2.220540    0.944539
C       3.396142    1.408140    0.309332
C       4.393610    2.390239    0.980568
C       3.226435    3.401680    1.144300
H      -1.786815    2.332475   -0.609330
H      -1.910997    1.628713    1.014708
H      -0.450409    4.192930    0.387265
H      -0.184230    3.239721    1.861098
H       1.214450    2.857983   -0.843535
H       1.972118    1.788667    1.919013
H       3.463996    0.346612    0.553758
H       3.400778    1.511559   -0.780542
H       4.742811    2.016295    1.947384
H       5.262303    2.709162    0.400069
H       3.181167    4.102321    0.303691
H       3.163071    3.972187    2.074267
