21

C      -0.454305    1.475987   -0.079152
C      -0.000475    0.035145    0.047196
O       1.137612   -0.327443   -0.791613
C       1.740087   -1.042372    0.303463
C       2.316611   -2.387360    0.003866
C       2.163534   -0.079385    1.367448
C       2.745631    1.292369    1.095361
O       4.167530    1.261760    1.054568
C       0.702315   -0.515144    1.284967
H       0.310597    2.187663    0.235994
H      -0.722305    1.693659   -1.118352
H      -1.345822    1.634666    0.537475
H      -0.837246   -0.628300   -0.214709
H       3.170630   -2.291397   -0.676034
H       2.669142   -2.866843    0.921642
H       1.576095   -3.038703   -0.471055
H       2.647478   -0.585634    2.204351
H       2.432116    1.634174    0.107426
H       2.386168    2.021106    1.839183
H       4.482668    1.036434    1.935525
H       0.206467   -1.010245    2.110301
