16

O       0.203629    1.358631    0.021087
C       0.015035   -0.013881    0.035940
C      -0.441457   -0.797501    1.256169
C      -1.128426    0.018218    2.293863
C      -2.254315    0.578378    1.844484
C      -2.568060    0.131836    0.417453
C      -2.881466    1.250119   -0.481577
N      -3.170384    2.130149   -1.172636
C      -1.332783   -0.685986    0.007323
H      -0.329336    1.755839    0.721363
H       0.780397   -0.493341   -0.565541
H       0.073529   -1.710188    1.533895
H      -0.721968    0.160871    3.288661
H      -2.900645    1.259202    2.383960
H      -3.455370   -0.516501    0.423212
H      -1.485607   -1.523539   -0.662029
