19

O       0.077495    1.443961    0.176422
C       0.075520    0.029316    0.075664
C       0.711569   -0.597987    1.323492
O       1.162364   -1.916787    1.076083
C       0.211137   -2.934718    1.257269
C      -0.989905   -2.939750    0.344616
C      -1.607993   -1.933413   -0.274625
C      -1.354169   -0.447771   -0.200914
O      -2.139576    0.141290    0.858682
H      -0.706368    1.670601    0.693617
H       0.704974   -0.235154   -0.780554
H       1.594629   -0.005143    1.577593
H       0.014536   -0.565328    2.173654
H       0.759545   -3.872654    1.114236
H      -0.153003   -2.944001    2.302659
H      -1.415214   -3.934937    0.215361
H      -2.478986   -2.193606   -0.875498
H      -1.657953    0.006983   -1.155147
H      -3.064119   -0.079756    0.712295
