16

C       0.200757    1.175137   -0.301620
C      -0.162897   -0.107234    0.395764
O       0.163754   -0.436861    1.501440
O      -0.947013   -0.875733   -0.434920
C      -1.378846   -2.091722    0.034368
N      -2.093242   -2.786537   -0.728837
C      -2.572195   -4.085701   -0.266206
C      -2.190094   -4.516718    1.080465
C      -1.863957   -4.849411    2.188747
H       0.736786    0.954244   -1.229033
H      -0.707558    1.719354   -0.575497
H       0.820370    1.783242    0.355795
H      -1.046150   -2.327746    1.044053
H      -3.666798   -4.074428   -0.348075
H      -2.236078   -4.832883   -0.996776
H      -1.582899   -5.155400    3.166385
