20

C       0.087729    1.521157    0.021411
C      -0.012077   -0.009599   -0.002560
C      -1.475296   -0.480728    0.029569
C       0.677312   -0.626812   -1.237044
N       2.104511   -0.308925   -1.408607
C       1.715583   -1.603288   -0.809781
C       1.744506   -1.602014    0.706744
O       2.119719   -0.353058    1.290929
C       0.727510   -0.650584    1.185630
H       1.135830    1.824969   -0.001773
H      -0.421772    1.959166   -0.843987
H      -0.377202    1.931169    0.924709
H      -2.027784   -0.091209   -0.831970
H      -1.544935   -1.574024    0.007377
H      -1.980598   -0.129294    0.935233
H       0.072083   -0.785627   -2.126070
H       2.362345   -0.461743   -2.381281
H       1.914239   -2.526024   -1.343733
H       2.048542   -2.492342    1.250458
H       0.204919   -0.753172    2.136343
