12

O       0.107680    0.114801   -0.672952
C       0.054301    1.248717   -0.258533
N      -1.170721    1.923596   -0.181446
C      -1.459757    3.175719    0.339312
N      -0.687466    4.181210    0.434454
C       0.591267    4.120115   -0.149822
O       0.945588    4.867174   -1.017996
N       1.486332    3.182389    0.422212
C       1.259588    1.938016    0.324546
H      -1.954516    1.318525   -0.397303
H      -2.490352    3.265034    0.682437
H       2.002139    1.229262    0.693965
