19

C       0.034629    1.344883   -0.561233
C      -0.396129    0.296771    0.461250
C      -1.529152   -0.589529   -0.050160
O      -2.044402   -0.445226   -1.141310
N      -1.910173   -1.565259    0.847483
C      -2.916206   -2.533403    0.738146
N      -3.089916   -3.294613    1.741721
C      -3.717672   -2.605326   -0.559197
O      -4.628825   -3.686966   -0.530210
H       0.839594    1.964502   -0.156846
H       0.388506    0.871415   -1.480161
H      -0.802540    1.992903   -0.830638
H       0.447259   -0.347430    0.742358
H      -0.729435    0.773367    1.392697
H      -1.440352   -1.600303    1.742432
H      -3.864401   -3.926853    1.534508
H      -4.301325   -1.688688   -0.679373
H      -3.040995   -2.646211   -1.418364
H      -4.145698   -4.490258   -0.748370
