17

O       0.021341    0.046682    0.325586
C      -0.011623    1.238687    0.097442
C      -1.287135    1.986781   -0.041256
C      -1.480065    3.377299    0.565506
C      -1.312176    3.241845   -0.912914
C      -0.049045    3.681756   -1.637384
C       1.248446    3.169684   -1.052194
O       1.438170    3.300754    0.351571
C       1.274056    1.973553   -0.179334
H      -2.150349    1.331276   -0.053989
H      -2.474395    3.584997    0.945307
H      -0.666295    3.788509    1.144819
H      -2.213837    3.363178   -1.505686
H      -0.092036    3.336210   -2.678509
H      -0.008158    4.778226   -1.679998
H       2.142305    3.379936   -1.640538
H       2.159140    1.343073   -0.131407
