12

O      -0.081913   -0.063579   -0.001637
C      -0.048285    1.139394    0.007384
N       1.138867    1.869816    0.000156
C       2.444657    1.345784   -0.018049
N       3.382993    2.205353   -0.021543
C       2.749128    3.525004   -0.004368
C       1.238460    3.285219    0.010127
O       0.315291    4.052500    0.026129
H      -0.927462    1.802197    0.022062
H       2.570146    0.270322   -0.027806
H       3.057817    4.097237    0.877086
H       3.038738    4.110973   -0.883269
