16

O       0.144264    1.383880   -0.146636
C       0.063631   -0.006163   -0.021184
C       0.249352   -0.785252   -1.329135
O      -0.881774   -1.628202   -1.010528
C      -1.307902   -0.732797    0.046784
C      -1.380645   -1.365193    1.440236
O      -0.272036   -0.824072    2.163844
C       0.765142   -0.596901    1.218698
H      -0.011875    1.775970    0.719947
H       0.062483   -0.164252   -2.213313
H       1.172991   -1.358505   -1.462451
H      -2.188538   -0.151058   -0.244314
H      -2.287909   -1.112551    1.994969
H      -1.303528   -2.458487    1.347990
H       1.278148   -1.538144    0.966327
H       1.489767    0.093450    1.658793
