17

N       0.151809    1.407349    0.022602
C      -0.045055    0.024561    0.014439
C      -1.164999   -0.765624    0.101622
C      -2.662612   -0.815972    0.165953
C      -2.915576   -2.332800   -0.134823
N      -1.665259   -3.030333    0.253283
C      -0.651855   -2.079679    0.139027
N       0.657575   -2.170847    0.068125
N       1.021947   -0.832722   -0.043427
H       0.816724    1.719057   -0.675566
H      -0.716234    1.912307   -0.094178
H      -3.044729   -0.554335    1.161522
H      -3.187755   -0.183068   -0.556952
H      -3.767324   -2.729426    0.424645
H      -3.124200   -2.460609   -1.207363
H      -1.502491   -3.912269   -0.212920
H       1.977468   -0.589228    0.153261
