22

C      -0.250984    1.699212   -0.269735
C      -0.095248    0.200834    0.055043
C      -1.415234   -0.538081    0.024554
N      -2.004311   -0.892847   -1.054956
O      -1.280380   -0.514452   -2.202492
C      -2.112386   -0.865293    1.312345
C      -1.323788   -1.743972    2.272301
C      -2.996278    0.217076    1.912639
C      -3.610625   -1.018940    1.303766
H       0.724646    2.194916   -0.255454
H      -0.689884    1.831659   -1.260682
H      -0.891501    2.199100    0.463073
H       0.575728   -0.254741   -0.679385
H       0.366143    0.089031    1.039582
H      -1.829696   -0.869646   -2.908666
H      -0.369488   -1.292480    2.562709
H      -1.896603   -1.914467    3.188909
H      -1.110743   -2.720284    1.823257
H      -2.997389    0.324927    2.992595
H      -3.103589    1.149689    1.369792
H      -4.120683   -0.921322    0.354666
H      -4.036551   -1.758631    1.973120
