18

C      -0.083681    1.632922   -0.033929
C       0.078434    0.104459    0.028998
C      -1.061838   -0.592471   -0.531737
C      -2.012827   -1.162552   -0.999265
C       1.348340   -0.720099   -0.208148
C       2.643253   -0.169427    0.451012
N       2.354494    1.111463    1.144205
C       1.998858   -0.183076    1.778468
C       0.684381   -0.734179    1.159615
H       0.710658    2.093818   -0.620331
H      -1.044931    1.869722   -0.497834
H      -0.056224    2.077572    0.960449
H      -2.855583   -1.657416   -1.413454
H       1.361759   -1.504885   -0.952992
H       3.649110   -0.433720    0.152368
H       3.229358    1.415880    1.572032
H       2.388605   -0.460408    2.749020
H       0.113860   -1.531357    1.617737
