20

C       0.264340    1.391529    0.192818
C      -0.094666   -0.082862   -0.041535
C      -1.606718   -0.310762   -0.121423
N       0.596156   -0.617951   -1.230912
C       0.062284   -0.314508   -2.548204
C       1.839307   -1.155009   -1.050328
N       2.414509   -1.226200    0.098186
C       2.495079   -1.683757   -2.239794
N       3.088043   -2.127633   -3.128563
H       1.344868    1.507064    0.305871
H      -0.073892    2.025394   -0.634283
H      -0.215544    1.754623    1.106877
H       0.300687   -0.661414    0.795843
H      -2.082507    0.303113   -0.892871
H      -1.840685   -1.360880   -0.320290
H      -2.059850   -0.039239    0.836192
H      -0.051601    0.767373   -2.691301
H       0.735537   -0.686023   -3.320526
H      -0.914856   -0.784434   -2.695453
H       3.305314   -1.709900    0.028942
