19

C       2.140171    0.027948    0.918350
C       1.356122   -1.070133    0.369557
C       0.719559   -1.981711   -0.093763
C      -0.042820   -3.110950   -0.625653
C      -1.444303   -3.216265   -0.024403
C      -2.482622   -2.228745   -0.531537
O      -1.987948   -0.923007   -0.743159
C      -1.914364   -4.492598    0.530240
O      -1.455978   -3.450759    1.392057
H       3.210530   -0.205514    0.904098
H       1.994873    0.950087    0.344971
H       1.862155    0.234488    1.957706
H      -0.128523   -3.025446   -1.716150
H       0.500037   -4.040457   -0.419597
H      -2.854753   -2.566316   -1.506931
H      -3.328203   -2.244817    0.173574
H      -1.433413   -0.682786    0.007894
H      -2.982962   -4.702899    0.576048
H      -1.274620   -5.372465    0.472030
