17

C      -0.162080    1.421393    0.093450
C      -0.057746   -0.029036    0.030525
C       0.026852   -1.229582   -0.012930
C       0.109075   -2.689637   -0.096390
C       0.775274   -3.345262    1.150915
N      -0.381394   -3.616190    1.983273
C      -1.534272   -3.744638    1.223154
O      -2.616629   -4.128391    1.601157
N      -1.198590   -3.351798   -0.074787
H       0.560662    1.839420    0.802542
H       0.027964    1.877862   -0.883978
H      -1.161422    1.730910    0.417939
H       0.660518   -2.968830   -1.000460
H       1.303939   -4.260898    0.850493
H       1.483379   -2.666368    1.630139
H      -0.311564   -4.181110    2.813936
H      -1.950362   -2.958949   -0.621206
