19

C       0.099978    1.582742   -0.220765
C       0.064838    0.087598   -0.012603
N       1.345389   -0.633689   -0.059102
C       0.580606   -0.616812    1.198415
C       1.219906    0.089374    2.351114
N       0.521998    0.047193    3.627880
C       1.836028   -0.622547    3.530685
C       1.816489   -2.104311    3.668283
O       2.775421   -2.758786    3.993035
H       1.001250    2.026567    0.207822
H       0.096637    1.817206   -1.290466
H      -0.775534    2.060479    0.231877
H      -0.788394   -0.401937   -0.482022
H       1.252776   -1.530363   -0.527152
H       0.039753   -1.517251    1.479748
H       1.741893    1.004305    2.080905
H       0.609064    0.923467    4.134113
H       2.712251   -0.151855    3.970039
H       0.829438   -2.571200    3.458341
