14

N       0.073141    1.342121    0.111440
C      -0.018153   -0.011116    0.024506
C      -1.113493   -0.812341    0.024500
C      -0.697199   -2.211939   -0.011929
O      -1.358880   -3.213869   -0.101075
N       0.775888   -2.251289    0.060895
C       1.403332   -1.760466   -1.173917
C       1.211513   -0.857736    0.003547
H       0.929146    1.788267   -0.174224
H      -0.761143    1.894110   -0.003605
H      -2.149562   -0.508375   -0.018699
H       2.391447   -2.160884   -1.385010
H       0.765738   -1.600170   -2.039936
H       2.058211   -0.570981    0.621813
