19

C       0.135989    1.413732   -0.115377
C       0.451666   -0.069963   -0.090044
O       0.257776   -0.591771   -1.410950
C       0.473455   -1.955295   -1.494665
C       0.638803   -2.543207   -2.853548
C       1.868125   -2.422244   -1.934728
N       2.861096   -1.401242   -2.138935
C       2.366660   -3.642639   -1.348038
N       2.738822   -4.636590   -0.886937
H       0.806670    1.943037   -0.798364
H      -0.893140    1.583001   -0.443859
H       0.257010    1.840039    0.884541
H       1.485944   -0.253521    0.231327
H      -0.213462   -0.600248    0.607668
H      -0.023733   -2.550070   -0.729524
H       0.217724   -3.523233   -3.045853
H       0.626332   -1.853273   -3.690124
H       3.371174   -1.556658   -3.002580
H       2.391563   -0.503633   -2.209218
