18

C      -0.018654    1.529262    0.000482
C      -0.007617    0.030711    0.024523
C      -0.029673   -0.802538   -1.082425
N      -0.009440   -2.122657   -0.667103
C       0.024875   -2.135783    0.698051
C       0.026889   -0.831903    1.152369
C       0.064807   -0.862750    2.655284
C       0.082818   -2.357657    2.946147
C       0.059526   -3.075984    1.801831
H       0.871078    1.950311    0.484355
H      -0.046741    1.909101   -1.025124
H      -0.889087    1.938065    0.527997
H      -0.057812   -0.556689   -2.132700
H      -0.020588   -2.919850   -1.277933
H       0.949376   -0.367850    3.079940
H      -0.804340   -0.380345    3.123877
H       0.110854   -2.763349    3.948819
H       0.065432   -4.155736    1.723595
