20

C       0.810504    0.808586    0.512248
C       0.116770   -0.313189   -0.270977
C      -1.330756   -0.518609    0.131394
C      -2.301918    0.597864   -0.198800
O      -2.306868    0.786555   -1.597711
C      -3.139465    1.846616   -2.004224
C      -1.867157   -1.874991    0.306486
O      -1.538103   -1.066827    1.441837
H       1.868270    0.870861    0.240421
H       0.362335    1.786145    0.308356
H       0.746182    0.623325    1.588702
H       0.144037   -0.099462   -1.344881
H       0.655670   -1.253271   -0.112576
H      -3.303397    0.331128    0.173929
H      -2.001385    1.526629    0.314602
H      -3.068460    1.920283   -3.092023
H      -4.190654    1.669312   -1.727208
H      -2.826157    2.804828   -1.560184
H      -2.929960   -2.062516    0.158328
H      -1.217600   -2.733625    0.143024
