16

C       0.027597    1.464043    0.106633
O       1.340488    2.056813    0.080538
C       2.160107    1.462494   -0.825545
C       2.001988    0.139862   -1.210009
N       3.059646   -0.158672   -2.043792
C       3.855352    0.945990   -2.184446
C       3.331414    1.976679   -1.422846
C       0.995687   -0.686171   -0.603833
C       0.050376   -0.047972    0.108326
H      -0.450939    1.861505    1.004628
H      -0.534124    1.837038   -0.770011
H       3.188000   -1.028277   -2.530185
H       4.716709    0.928930   -2.832413
H       3.738509    2.969453   -1.319083
H       1.044265   -1.769113   -0.662901
H      -0.715746   -0.578169    0.661477
