18

O      -0.938928    1.143937    0.201849
C       0.196773    0.881754   -0.101193
C       1.355972    1.842661    0.057022
C       1.520142    2.528339    1.434410
C       2.329355    1.262623    1.796486
N       2.645498    1.104990    0.321719
C       3.745426    2.038796    0.001465
C       3.685367    3.334622    0.861031
O       2.359570    3.660745    1.289507
H       0.485779   -0.103977   -0.531485
H       1.377288    2.514863   -0.809402
H       0.641239    2.835635    2.003434
H       3.189215    1.352737    2.462882
H       1.696728    0.436183    2.131166
H       4.704403    1.537483    0.173444
H       3.683443    2.264724   -1.067798
H       4.327866    3.220665    1.744458
H       4.056271    4.198283    0.301966
