20

C       0.384733    1.914072   -0.380514
O      -0.241638    0.750586   -0.885891
C       0.665569   -0.298035   -1.175332
C       1.203227   -0.929531    0.117459
O       2.351429   -1.245814    0.277643
C      -0.030211   -1.332999   -2.051933
N      -0.202808   -2.685387   -1.489234
C      -1.392929   -1.884890   -1.799053
C      -2.304356   -1.498475   -0.660260
H       0.910495    1.729316    0.567632
H       1.110319    2.323352   -1.099557
H      -0.402220    2.651517   -0.208252
H       1.542084    0.092663   -1.714768
H       0.442776   -1.038217    0.921338
H       0.251804   -1.265037   -3.100126
H      -0.026617   -3.399090   -2.189378
H      -1.926808   -2.151167   -2.711950
H      -1.742322   -1.246366    0.239833
H      -2.910854   -0.630149   -0.933185
H      -2.977154   -2.329407   -0.421781
