20

C      -0.024943    1.557444    0.013997
C       0.092721    0.049264    0.075550
C       1.347288   -0.742002   -0.189813
C       2.603493   -0.048642    0.364894
C       1.943365   -0.051468    1.759853
C       2.631150   -0.407444    3.042550
C       2.038063    0.972931    2.855336
C       0.705864   -0.735452    1.209363
H       0.847122    2.056541    0.442138
H      -0.132544    1.898451   -1.021909
H      -0.904547    1.901338    0.569595
H      -0.782071   -0.461624   -0.325188
H       1.366442   -1.547153   -0.914561
H       3.488053   -0.690153    0.324507
H       2.857614    0.924303   -0.070153
H       2.128235   -1.090687    3.720310
H       3.712447   -0.505498    3.035239
H       2.722706    1.804631    2.720125
H       1.137712    1.222735    3.407507
H       0.168237   -1.530530    1.714877
