14

C      -0.024122    1.305249   -0.053040
O       0.112799   -0.118365    0.018437
C       0.695248   -0.561762    1.123016
N       1.150243    0.112362    2.131437
C       1.642885   -0.882674    2.977327
C       1.458391   -2.103515    2.433198
N       1.756161   -3.393043    2.846218
O       0.823833   -1.893589    1.190856
H       0.956428    1.787551   -0.014698
H      -0.513593    1.505130   -1.006055
H      -0.632003    1.674549    0.777419
H       2.099416   -0.649750    3.925938
H       2.401051   -3.869462    2.223808
H       0.931292   -3.974109    2.956698
