19

C      -0.011247    1.581604   -0.009847
C       0.049200    0.049452    0.007001
C       0.804615   -0.580487   -1.195352
C       1.515967   -1.833603   -0.647252
O       2.778838   -1.994370   -1.261845
C       1.587762   -1.544007    0.844286
C       2.431301   -2.323285    1.743969
O       3.166475   -3.216276    1.364192
C       0.781196   -0.532371    1.191746
H       0.995588    2.012027   -0.009800
H      -0.528757    1.937241   -0.906216
H      -0.547234    1.970274    0.862384
H      -0.985639   -0.326876    0.032815
H       0.152502   -0.792354   -2.045337
H       1.588545    0.104971   -1.534942
H       0.900024   -2.735895   -0.805741
H       3.233742   -2.683983   -0.759070
H       2.376623   -2.052148    2.820102
H       0.641484   -0.167544    2.206268
