19

C       0.114987    1.607582    0.196061
C       0.015637    0.083402    0.039055
N       0.679471   -0.689594    1.079282
C       0.033050   -0.768322    2.377877
C       2.053348   -0.778901    1.049635
N       2.769637   -1.137076    2.122915
N       4.022665   -1.163324    1.652499
N       4.187781   -0.839275    0.385855
C       2.948805   -0.583977   -0.033736
H       1.158941    1.935174    0.191436
H      -0.404122    2.111043   -0.626023
H      -0.340488    1.939004    1.134323
H      -1.037107   -0.220427    0.030463
H       0.426801   -0.219794   -0.929968
H       0.416323   -1.632405    2.924428
H       0.201678    0.121384    3.003744
H      -1.043227   -0.892253    2.229056
H       4.798094   -1.406712    2.244789
H       2.762472   -0.284329   -1.051082
