21

C      -0.135954    1.574684    0.090399
C      -0.186146    0.046895    0.149277
C       0.958431   -0.544608    0.997537
C       0.930522   -2.000695    1.068172
C       0.894045   -3.204035    1.122921
C       0.817884   -4.646373    1.160499
C      -0.270381   -5.273101    0.312917
C       2.027915   -5.423010    1.503422
O       0.991617   -5.245445    2.462876
H       0.802545    1.925423   -0.353284
H      -0.957740    1.973483   -0.511710
H      -0.213034    2.013749    1.091349
H      -1.143105   -0.283949    0.567870
H      -0.130250   -0.371912   -0.861718
H       1.922824   -0.214113    0.587952
H       0.907088   -0.131810    2.014180
H      -0.134451   -5.012851   -0.741163
H      -0.250312   -6.360624    0.418239
H      -1.252694   -4.909400    0.628196
H       2.137520   -6.432400    1.106672
H       2.957958   -4.897350    1.712148
