12

O       0.091588    1.332790    0.008321
C       0.055879   -0.019609    0.004562
C       0.024015   -0.812524   -1.114584
N      -0.006265   -2.126127   -0.679236
C       0.005163   -2.189478    0.672351
C       0.044256   -0.885693    1.149099
C       0.069117   -0.439066    2.486975
N       0.091293    0.002630    3.559510
H       0.108572    1.641486    0.922025
H       0.020545   -0.556078   -2.159300
H      -0.033216   -2.925158   -1.287967
H      -0.014303   -3.124444    1.206291
