16

O      -0.134895    1.417869    0.017396
C       0.035893    0.058068   -0.026084
C       0.090221   -1.009762    1.044257
C      -1.014456   -1.009225   -0.050935
C      -0.315794   -1.855130   -1.138302
C       0.443331   -2.995843   -0.417439
C       1.170288   -1.846646    0.325791
C       0.917540   -0.895036   -0.909448
H       0.624764    1.806233    0.466403
H      -0.160946   -0.956288    2.095655
H      -2.063092   -0.940031    0.205793
H      -0.811337   -1.990238   -2.098783
H      -0.129039   -3.721356    0.169046
H       1.118198   -3.520849   -1.101219
H       2.140120   -1.977408    0.805106
H       1.657558   -0.640902   -1.664404
