21

C      -0.239636    1.455799    0.333963
C       0.017612   -0.028427    0.114481
C       1.154197   -0.538192   -0.834569
C       2.185456   -0.143116    0.262475
C       1.013086   -0.837207    1.019386
C       1.063430   -1.919733   -0.104924
C      -0.057245   -2.901059   -0.342189
C      -0.489300   -3.841572    0.702608
O      -1.315944   -2.742094    0.322194
H       0.663855    2.048615    0.495697
H      -0.760818    1.880387   -0.531661
H      -0.889819    1.601168    1.204028
H      -0.935368   -0.536506   -0.029449
H       1.242938   -0.375372   -1.911149
H       3.139415   -0.678004    0.248300
H       2.342600    0.918953    0.446307
H       0.935760   -1.012835    2.094176
H       2.007537   -2.478709   -0.140781
H      -0.155370   -3.238658   -1.376702
H      -0.864146   -4.826904    0.428924
H      -0.051220   -3.770192    1.697431
