18

C       0.004317    1.435972    0.031177
N       0.013288   -0.011927    0.020775
C       0.003358   -0.789555   -1.104715
C       0.015478   -2.119416   -0.721566
C       0.033512   -2.126174    0.709980
C       0.031813   -0.822247    1.142516
C       0.046256   -0.262348    2.525974
C       0.010929   -3.240955   -1.582494
C       0.007253   -4.206810   -2.303666
H       0.893839    1.834198    0.530434
H      -0.005202    1.797810   -0.997970
H      -0.882715    1.823545    0.543227
H      -0.011493   -0.348513   -2.088234
H       0.046356   -3.002905    1.338805
H       0.928683    0.361546    2.717322
H      -0.836494    0.354071    2.738762
H       0.058538   -1.079943    3.249868
H       0.003977   -5.055043   -2.941374
