15

O       0.007614    0.005155    0.414471
C      -0.030708    1.129227   -0.006287
C      -1.333180    1.912495   -0.129694
C      -1.293318    3.116580   -1.074701
C      -0.007545    3.901389   -0.818063
C       1.185558    2.986979   -1.049173
O       1.134482    1.756964   -0.303641
H      -2.111527    1.192888   -0.392825
H      -1.562145    2.251279    0.889759
H      -1.311775    2.777862   -2.118439
H      -2.180688    3.740281   -0.929883
H       0.079397    4.766204   -1.484315
H       0.005422    4.279936    0.211551
H       1.262012    2.728846   -2.114018
H       2.125031    3.460219   -0.752389
