17

O       0.923913   -0.060156   -1.066350
C      -0.000843   -0.025754   -0.011268
C      -1.256433   -0.781587   -0.385919
O      -1.375699   -1.327750   -1.457199
C       0.620428   -0.598503    1.270664
C       1.871399    0.164584    1.843527
C       1.078218    0.393850    3.135443
O      -0.114042    1.107816    2.783411
C      -0.098909   -0.313159    2.604923
H       0.496607   -0.573183   -1.770510
H      -0.301911    1.012798    0.207776
H      -2.062719   -0.812421    0.374810
H       0.838048   -1.662368    1.139149
H       2.733249   -0.493506    1.968045
H       2.173811    1.069057    1.312253
H       1.432752    0.501542    4.153655
H      -0.871470   -0.884282    3.107267
