18

O      -0.061904    1.373240    0.057374
C      -0.002837   -0.034482    0.025130
C      -1.427031   -0.609594   -0.145959
C      -1.250537   -0.434716   -1.678551
C       0.270902   -0.625145   -1.398181
C       0.560831   -2.091021   -1.250170
N       1.556112   -2.648463   -1.797950
O      -0.328496   -2.790777   -0.480470
C      -1.396290   -2.093058    0.191948
H       0.829777    1.712990   -0.072544
H       0.605358   -0.430874    0.850442
H      -2.245078   -0.103936    0.371495
H      -1.740710   -1.153116   -2.339749
H      -1.468415    0.584004   -1.995509
H       1.017873   -0.155711   -2.036621
H       1.571309   -3.644548   -1.567607
H      -1.256252   -2.247684    1.268768
H      -2.331193   -2.581003   -0.106004
