19

O      -0.080398    1.492014    0.099114
C      -0.011153    0.083800    0.270056
C      -1.304421   -0.506496   -0.280794
C      -1.363434   -2.023402   -0.147561
C      -1.757920   -2.620083    1.210759
C      -2.715429   -2.688812    0.057404
O      -3.836063   -1.859666    0.028020
C      -0.402501   -2.758917   -0.928015
C       0.401701   -3.365890   -1.586187
H       0.756970    1.869486    0.382887
H       0.849909   -0.344588   -0.264330
H       0.096632   -0.185182    1.333674
H      -2.157258   -0.065740    0.240359
H      -1.397170   -0.228038   -1.335912
H      -1.262276   -3.526108    1.538604
H      -1.982381   -1.901442    1.992309
H      -2.844474   -3.653294   -0.431461
H      -4.439219   -2.148618    0.720793
H       1.109300   -3.901354   -2.168982
