16

C      -0.137711    1.402084   -0.122381
C      -0.056474    0.014322    0.416536
C      -1.059724   -0.903008    0.446872
N      -1.653427   -1.270346   -0.863513
C      -0.755423   -2.503119   -0.674097
C      -0.591052   -2.317685    0.774182
C       0.678582   -2.206199   -0.046777
C       1.200007   -0.804580    0.198839
O       2.315453   -0.392510   -0.005126
H       0.806559    1.686606   -0.592815
H      -0.957927    1.493064   -0.843763
H      -0.331009    2.116383    0.687465
H      -2.594504   -1.656722   -0.744019
H      -0.914611   -3.390531   -1.280924
H      -0.752704   -2.940948    1.643580
H       1.379143   -3.032563   -0.132826
