17

C       0.193006    1.594895    0.047160
C      -0.012693    0.072975   -0.000062
C       0.709672   -0.601071   -1.188254
O       0.911238    0.222221   -2.304229
C       2.038093   -1.064768   -0.587351
O       3.049424   -1.302923   -1.205056
N       1.848198   -1.146504    0.774299
C       0.636429   -0.588190    1.213105
N       0.151497   -0.572383    2.382475
H       1.256001    1.853392    0.079439
H      -0.234325    2.059972   -0.842800
H      -0.289451    2.000711    0.938975
H      -1.081631   -0.147283    0.006416
H       0.161427   -1.516858   -1.470613
H       1.758632   -0.047175   -2.686047
H       2.561105   -1.501381    1.396020
H       0.751492   -1.048099    3.058741
