20

C      -0.060913    1.496507    0.026484
C       0.013182   -0.002772    0.019432
C       0.894029   -0.774614   -1.049613
C       1.827693   -1.255757    0.100527
C       0.707516   -0.885521    1.090877
C      -0.564380   -1.746343    1.012842
C      -0.998565   -2.040051   -0.379267
C      -0.014694   -1.913201   -1.523082
N      -1.327032   -0.716824    0.192370
H       0.940586    1.940052    0.016375
H      -0.603764    1.859377   -0.854131
H      -0.588421    1.855741    0.915565
H       1.345983   -0.199104   -1.858849
H       2.163828   -2.296767    0.062130
H       2.697958   -0.604964    0.225887
H       0.943848   -0.517884    2.090139
H      -1.030936   -2.234613    1.863425
H      -1.857682   -2.695870   -0.493481
H      -0.557739   -1.643489   -2.436652
H       0.538785   -2.836862   -1.722829
