16

C       0.004370    1.486733   -0.082744
C       1.321862    0.783665    0.043577
C      -0.004779   -0.005859    0.051877
C       0.378825   -0.668090   -1.278978
O      -0.312390   -0.241767   -2.444396
C       0.677023    0.322851   -3.284578
O       1.652880    0.927784   -2.456689
C       1.708701    0.123350   -1.287289
H      -0.311260    2.026411    0.803730
H      -0.278502    1.952177   -1.020643
H       2.007174    0.967910    0.860650
H      -0.485965   -0.515851    0.876240
H       0.461037   -1.758512   -1.237296
H       1.138373   -0.458996   -3.913846
H       0.216544    1.090005   -3.913741
H       2.628274   -0.468742   -1.250822
