17

C       0.017127    1.536300   -0.026114
C      -0.126062    0.021720   -0.136217
N       0.848170   -0.516435   -1.075339
C       0.865116   -1.882237   -1.320199
N       1.287756   -2.346141   -2.496786
N       1.233796   -3.695182   -2.359491
C       0.780836   -4.085977   -1.150534
C       0.523649   -2.937061   -0.432289
H       1.029053    1.807961    0.288085
H      -0.180800    2.022013   -0.988734
H      -0.694552    1.938876    0.700102
H       0.057316   -0.431877    0.844928
H      -1.161965   -0.238690   -0.413872
H       0.909523    0.008867   -1.938118
H       1.511482   -4.271042   -3.133916
H       0.675967   -5.127950   -0.891183
H       0.153178   -2.872206    0.576589
