14

O      -0.226260    1.376383   -0.002394
C      -0.116735   -0.004973    0.031951
C      -0.427676   -0.824068    1.262080
C      -1.585116   -0.127381    1.990587
O      -1.734458    0.348236    3.077181
N      -2.419623   -0.215738    0.872795
C      -1.390704   -0.822125    0.041586
C      -1.669454   -1.911374   -0.910999
O      -2.772893   -2.299436   -1.198316
H       0.379470    1.751852    0.646395
H       0.681602   -0.423669   -0.585212
H       0.204292   -1.623188    1.624764
H      -3.027155    0.533162    0.563656
H      -0.752619   -2.345065   -1.370584
