17

C      -0.143070    1.452573   -0.013963
C       0.028202   -0.035733    0.056082
O      -1.251256   -0.770384    0.005903
C      -0.910483   -1.509001    1.133802
N      -1.564054   -2.371669    1.766689
C       0.455464   -0.870007    1.270090
N       1.628580   -1.481393    0.502530
C       1.108126   -2.178515   -0.687884
C       1.165312   -0.707480   -0.733396
H       0.818568    1.952096    0.138361
H      -0.527563    1.746230   -0.996686
H      -0.844843    1.799539    0.748932
H      -2.484764   -2.522678    1.349142
H       0.767065   -0.478255    2.235215
H       1.893034   -2.711061   -1.216245
H       0.155932   -2.696935   -0.650467
H       1.872647   -0.161038   -1.349537
