15

C       0.098883    1.512892   -0.212993
C       0.034625    0.037370    0.103366
N       1.306767   -0.706264    0.149507
C       0.488034   -0.589802    1.375836
C       1.170341    0.138449    2.511518
O       2.285346   -0.600195    2.982516
H       0.984961    1.978727    0.222068
H       0.143310    1.664544   -1.296789
H      -0.789632    2.031704    0.162922
H      -0.800500   -0.474124   -0.375362
H       1.199871   -1.627555   -0.264861
H      -0.047607   -1.485072    1.688614
H       1.469392    1.148018    2.197237
H       0.486124    0.244850    3.360130
H       2.826922   -0.771160    2.202281
