17

C      -0.971225    1.128729    0.106155
C       0.011050   -0.009177    0.030318
N       0.692827   -0.440713    1.022723
O       0.386817    0.256998    2.202246
C       0.189464   -0.711834   -1.279595
O       0.233047    0.149536   -2.391015
C       0.940263   -2.012381   -1.370912
C      -0.563701   -1.993108   -1.534013
H      -0.510271    1.999022    0.582211
H      -1.323510    1.397762   -0.889135
H      -1.824897    0.848142    0.732869
H       0.978642   -0.156065    2.839783
H       1.085270    0.600147   -2.376865
H       1.531299   -2.154613   -2.268451
H       1.360325   -2.420370   -0.460874
H      -1.172844   -2.392132   -0.731253
H      -0.966758   -2.115666   -2.532936
