18

C      -0.009822    1.619217    0.245998
C       0.120936    0.137224    0.065309
C      -0.884764   -0.874160    0.534055
C       0.520462   -0.869008    1.111541
C       1.524284   -1.783978    0.448969
O       1.249060   -3.157658    0.596102
C       1.452349   -1.367972   -1.021063
N       1.944196   -2.074143   -1.943960
O       0.768098   -0.205668   -1.169130
H       0.971772    2.103253    0.232205
H      -0.618665    2.055751   -0.552190
H      -0.492358    1.840643    1.201669
H      -1.684082   -0.526949    1.179231
H      -1.156475   -1.684941   -0.133471
H       0.671233   -0.575339    2.142750
H       2.533004   -1.548446    0.826495
H       1.607472   -3.579264   -0.198102
H       1.755614   -1.684622   -2.867541
