16

C       0.035828    1.492588   -0.065767
C      -0.047376   -0.038724    0.020137
O       0.657956   -0.594408   -1.104768
C       1.582799   -1.589046   -0.673442
C       1.593799   -1.488973    0.825533
C       0.676170   -0.619009    1.223388
C      -1.455387   -0.475829    0.003165
C      -2.605773   -0.824551    0.004071
H       1.083544    1.802026   -0.031384
H      -0.407502    1.834650   -1.004059
H      -0.505465    1.955412    0.764254
H       1.266833   -2.588201   -1.014864
H       2.563506   -1.384509   -1.125978
H       2.254639   -2.071043    1.455280
H       0.416797   -0.342365    2.236397
H      -3.620045   -1.139518   -0.003852
