20

C       0.112515    1.504014   -0.721887
C      -0.009643    0.149717   -0.053656
C       1.067659   -0.857086   -0.239509
N       0.899417   -0.174750    1.059302
C      -1.440219   -0.328650    0.086761
O      -1.585093   -1.693299    0.562040
C      -2.549185   -1.265143    1.533032
C      -1.931455   -0.356000    2.542138
C      -2.366046    0.193869    1.193243
H       1.163303    1.781578   -0.851681
H      -0.357504    1.504973   -1.711730
H      -0.371986    2.283845   -0.122715
H       0.817392   -1.912604   -0.221016
H       1.915373   -0.587808   -0.864631
H       1.593207    0.563409    1.153783
H      -1.929460   -0.242866   -0.894673
H      -3.429890   -1.880961    1.670692
H      -2.585434   -0.067010    3.359823
H      -0.879682   -0.459713    2.778954
H      -3.098136    0.981365    1.078143
