18

O      -0.078197    0.132513   -0.562945
C       0.009212    1.311553   -0.281137
C       1.336990    1.984204    0.009353
C       2.538791    1.044970   -0.177930
C       3.804720    1.700773    0.123008
C       4.835075    2.265167    0.376869
C      -1.212777    2.172749   -0.203000
C      -2.172321    2.064414   -1.351424
N      -2.508812    1.494112   -0.056364
H       1.428861    2.871833   -0.629776
H       1.306724    2.372070    1.036168
H       2.406591    0.162997    0.458110
H       2.544449    0.665881   -1.206058
H       5.754424    2.747972    0.598057
H      -1.116106    3.122036    0.315591
H      -2.740014    2.944357   -1.639736
H      -1.893325    1.394548   -2.160071
H      -2.315543    0.491789   -0.085524
