21

C      -1.606473   -0.563437    2.424512
C      -0.759806   -0.825315    1.206841
O      -0.474015    0.286740    0.350636
C       0.625680   -0.360156    1.003154
C       1.439341    0.475539    1.958889
C       1.835597    1.828797    1.408864
O       1.060999    0.472642    3.346002
C       2.279332   -0.185390    2.976161
C       2.351716   -1.676676    3.187722
H      -1.294068    0.341573    2.943018
H      -2.655395   -0.465594    2.124356
H      -1.534953   -1.402179    3.124911
H      -1.036963   -1.726519    0.653292
H       1.246106   -0.940121    0.314034
H       0.940403    2.405631    1.161560
H       2.425880    2.381783    2.143281
H       2.425000    1.718171    0.492076
H       3.173686    0.358590    3.288926
H       1.456337   -2.179862    2.816948
H       3.224747   -2.092456    2.672741
H       2.455155   -1.902855    4.254081
