20

C       0.295104    1.820406    0.026811
C       0.093414    0.297423   -0.004123
C       0.661853   -0.311239   -1.275202
C       0.176053   -1.649243   -1.766532
C      -0.180608   -0.393286   -2.523989
C       0.707738   -0.343583    1.224480
C      -0.046484   -0.546471    2.467297
O       0.232556   -1.640716    1.590467
H       1.361425    2.075252    0.029080
H      -0.153293    2.286349   -0.855350
H      -0.155899    2.266747    0.918773
H      -0.982705    0.079627    0.026418
H       1.718611   -0.100185   -1.428765
H       0.896334   -2.329244   -2.207574
H      -0.600688   -2.139121   -1.190539
H      -1.205391   -0.039468   -2.466297
H       0.294407   -0.214491   -3.482341
H       1.792318   -0.234900    1.306753
H       0.471489   -0.569258    3.425203
H      -1.091983   -0.242364    2.514757
