16

C      -0.058906    1.554527    0.082463
C       0.039491    0.043051   -0.045124
C       1.169090   -0.570485   -0.954444
C       1.718449   -1.290421    0.279657
O       2.034901   -0.293111    1.250601
C       0.661530   -0.722242    1.151344
C       0.002827   -1.218868    2.309477
C      -0.605408   -1.616303    3.268090
H       0.903393    1.973651    0.388973
H      -0.343161    2.008955   -0.872430
H      -0.810680    1.838854    0.826316
H      -0.928660   -0.396866   -0.301058
H       0.777421   -1.245606   -1.718398
H       1.863624    0.138970   -1.411286
H       2.240979   -2.237311    0.354362
H      -1.129801   -1.972680    4.120026
