19

C      -0.033100    1.517894   -0.202478
O       1.272903    1.994997    0.125602
C       1.950100    1.025181    0.925388
C       1.758610    1.368005    2.405070
O       0.384139    1.352347    2.748323
C      -0.201020    0.066673    2.652497
C       0.066078   -0.638393    1.336611
C      -0.004369    0.001605   -0.033975
C       1.333804   -0.332838    0.576828
H      -0.783148    2.003714    0.433404
H      -0.239319    1.785180   -1.245395
H       3.015516    1.062797    0.671933
H       2.336253    0.669588    3.035978
H       2.104901    2.386272    2.600327
H       0.173510   -0.577489    3.468004
H      -1.274355    0.213575    2.814949
H      -0.233428   -1.683832    1.357818
H      -0.404543   -0.603029   -0.839780
H       1.970065   -1.123207    0.197954
