18

C      -0.063861    1.535601    0.007359
C      -0.024105    0.006422    0.032635
C       0.809089   -0.541194    1.208275
C       0.806248   -2.042559    1.244459
N      -0.300960   -2.653860    1.703992
C      -0.261972   -3.976259    1.694059
C       0.865517   -4.652932    1.228944
N       1.929808   -3.994321    0.781647
N       1.902234   -2.665211    0.789310
H       0.943150    1.957234   -0.082966
H      -0.655325    1.900518   -0.837859
H      -0.509908    1.935372    0.924686
H      -1.041409   -0.395268    0.105775
H       0.396607   -0.371875   -0.906890
H       1.843648   -0.197353    1.127189
H       0.390248   -0.169171    2.149805
H      -1.135711   -4.510985    2.060926
H       0.925338   -5.736375    1.211350
