16

C      -0.154855    1.538922    0.082871
C       1.372053    1.276238    0.090811
O       1.136592    0.164245    1.039765
C       0.092285    0.011584    0.001206
C       1.171755    0.278795   -1.078935
C       0.868794    0.688806   -2.539184
N       1.754280   -0.149107   -3.364106
C       2.400116   -0.861051   -2.539056
O       2.179204   -0.731504   -1.208605
H      -0.546152    1.866741    1.044766
H      -0.607597    2.057196   -0.765624
H       2.202133    1.953278    0.292541
H      -0.605069   -0.820777    0.095987
H      -0.176094    0.509527   -2.815006
H       1.077196    1.747660   -2.727374
H       3.149481   -1.601307   -2.795914
