21

C      -0.217845    1.568758   -0.102765
C       0.133156    0.076325    0.052064
C       0.819953   -0.496568   -1.150624
C       2.091492   -0.924339   -1.220892
C       2.408302   -1.433482   -2.567019
O       3.441138   -1.944590   -2.940298
C       1.162409   -1.208834   -3.449361
C       0.782957   -2.470425   -4.227737
C       0.095965   -0.672868   -2.471621
H       0.683412    2.166512   -0.268504
H      -0.894940    1.738506   -0.944962
H      -0.710229    1.939134    0.800819
H       0.767300   -0.059735    0.934112
H      -0.792554   -0.486456    0.235028
H       2.810644   -0.933293   -0.410661
H       1.434883   -0.424498   -4.166981
H       0.458395   -3.266903   -3.548848
H      -0.030232   -2.275492   -4.933560
H       1.650311   -2.836506   -4.783321
H      -0.735296   -1.380965   -2.348206
H      -0.357998    0.265471   -2.810409
