20

C      -0.042129    1.578920   -0.131473
C       0.003585    0.061284   -0.007034
C       1.056912   -0.678285   -0.897607
N       1.762944   -1.165492    0.331477
C       0.719387   -0.568952    1.236659
C       1.824629    0.187547    2.020043
C       2.121523   -0.300047    3.436065
C       2.754894   -0.311114    0.882426
O       3.852511   -0.035994    0.490679
H       0.955744    2.025424   -0.071340
H      -0.471503    1.870487   -1.095767
H      -0.659114    2.023411    0.656970
H      -1.003975   -0.345469   -0.130219
H       0.659883   -1.503118   -1.493981
H       1.689694   -0.049464   -1.530915
H       0.120490   -1.274443    1.818108
H       1.742343    1.278116    2.002398
H       2.185336   -1.392078    3.473371
H       3.074517    0.105894    3.787710
H       1.338687    0.018867    4.131820
