16

C      -0.054050    1.348041   -0.177260
C       0.229832   -0.109252    0.079232
O       1.584679   -0.526173    0.187442
C       0.751209   -0.669987    1.354461
C       1.177011    0.151145    2.547617
O       2.358581   -0.390936    3.115957
C       0.379416   -2.102380    1.664024
O       0.265013   -2.956215    0.824327
H       0.601530    2.005502    0.395962
H       0.093837    1.566144   -1.240053
H      -1.095104    1.581917    0.068403
H      -0.377962   -0.807390   -0.498942
H       1.305046    1.204309    2.271393
H       0.411983    0.101509    3.330785
H       3.028559   -0.391298    2.422308
H       0.190808   -2.309731    2.739225
