18

C       0.030444    1.506533    0.063892
C       0.035864   -0.012716    0.096356
O       1.058282   -0.637243    0.253226
N      -1.193105   -0.689562   -0.069669
C      -2.423702   -0.037927   -0.024899
O      -3.492056   -0.595387    0.003351
C      -1.171473   -2.139177   -0.073968
C      -1.922336   -2.878886   -1.145219
C      -0.418107   -2.857756   -1.157351
H       1.071306    1.825944    0.106601
H      -0.433625    1.899922   -0.844831
H      -0.501764    1.926538    0.922922
H      -2.329157    1.058411   -0.019737
H      -1.151964   -2.572184    0.920691
H      -2.441113   -3.782912   -0.848819
H      -2.446514   -2.289352   -1.886514
H       0.074928   -2.251752   -1.907724
H       0.132480   -3.745863   -0.870602
