19

C      -0.009591    1.486505   -0.079101
C       0.021313   -0.028764   -0.037889
C       1.361115   -0.729777   -0.187214
C       0.681319   -0.707451    1.150620
C      -1.150797   -0.722492   -0.621831
N      -1.323965   -2.027929   -0.688775
C      -2.539695   -2.216575   -1.303106
C      -3.114942   -1.015697   -1.614452
N      -2.215631   -0.065470   -1.172938
H       0.894938    1.899927    0.374692
H      -0.058753    1.863756   -1.108107
H      -0.865130    1.890455    0.476432
H       1.356491   -1.664851   -0.734165
H       2.235636   -0.104813   -0.336284
H       1.085055   -0.067202    1.928218
H       0.223999   -1.627541    1.493869
H      -2.929559   -3.206678   -1.484889
H      -4.042778   -0.745803   -2.089986
H      -2.325280    0.931126   -1.246547
