18

O      -0.280949    1.478264    0.556869
C      -0.053447    0.182724    0.019567
C       0.928541   -0.600503    0.905862
O       1.280783   -1.827344    0.274811
C       0.524787   -2.931991    0.664340
O      -0.868388   -2.673181    0.701584
C      -1.391443   -1.953649   -0.370302
N      -1.867198   -2.486513   -1.409783
C      -1.435934   -0.474783   -0.100497
H       0.527637    1.991472    0.460110
H       0.394640    0.241672   -0.983667
H       1.854903   -0.024840    1.014861
H       0.504520   -0.761126    1.905154
H       0.764572   -3.719391   -0.061324
H       0.765653   -3.265730    1.683085
H      -1.764752   -3.503173   -1.363925
H      -1.952586   -0.321287    0.855129
H      -2.009338    0.017800   -0.886386
