19

C       0.102710    1.483434   -0.109468
C      -0.037612   -0.026282    0.050490
O       0.593825   -0.493221    1.251357
C      -1.485817   -0.525503    0.008662
C      -1.991567   -1.192681   -1.272673
C      -1.633773   -2.043951   -0.097727
O      -0.474999   -2.809520   -0.164876
C      -2.414759    0.169759    0.854704
C      -3.168581    0.746533    1.596321
H       1.157676    1.764707   -0.059271
H      -0.303141    1.809110   -1.072515
H      -0.441237    2.012949    0.679063
H       0.510187   -0.530957   -0.748502
H       0.104445   -0.121518    1.995483
H      -3.037738   -1.068840   -1.525690
H      -1.305636   -1.200813   -2.112668
H      -2.452493   -2.484462    0.469411
H       0.082181   -2.534511    0.577553
H      -3.847230    1.257537    2.233429
