18

C      -0.169272    1.586359    0.042896
C      -0.039055    0.096919    0.039806
C       0.015666   -0.730255   -1.042542
N      -0.008078   -0.452815   -2.411717
O       0.073159   -2.034925   -0.674113
C       0.073038   -2.056614    0.723449
N       0.069405   -3.269294    1.409901
C       0.011113   -0.778420    1.185658
N      -0.103594   -0.375147    2.523679
H       0.774768    2.099029    0.274458
H      -0.503069    1.943499   -0.936053
H      -0.901511    1.912758    0.790224
H       0.819316    0.036751   -2.733489
H      -0.118600   -1.303172   -2.950232
H      -0.796208   -3.792107    1.307317
H       0.836708   -3.879080    1.145258
H       0.081786   -1.152607    3.147394
H       0.511387    0.396413    2.753649
