15

C      -0.047965    1.607884    0.061805
C       0.040751    0.091195    0.006140
C       1.107212   -0.598249   -0.901650
O       1.282634   -0.631133   -2.080415
C       1.721330   -1.329858    0.283577
N       2.099464   -0.241551    1.231373
C       0.691424   -0.678679    1.182154
C       0.031567   -1.257826    2.303773
N      -0.515962   -1.711141    3.217257
H       0.900990    2.037359    0.389720
H      -0.281572    2.000911   -0.931970
H      -0.836678    1.930585    0.747947
H      -0.926040   -0.361114   -0.245771
H       2.172749   -2.311955    0.345426
H       2.552355   -0.688237    2.029650
