9

F       0.045558    0.108818    0.002775
C      -0.044104    1.411923    0.011235
N      -1.212145    1.940827    0.029883
C      -1.256657    3.324876    0.037826
O      -2.237469    4.015913    0.054497
N       0.039866    3.917242    0.023072
N       1.200417    3.289415    0.003895
N       1.200791    2.010151   -0.002783
H       0.102596    4.928306    0.027404
