15

C      -0.010263    1.451604    0.005823
N       0.006070   -0.007193   -0.030359
C      -0.097890   -0.686495   -1.205268
C      -0.084041   -2.047253   -1.253903
C       0.043427   -2.758969   -0.031699
C       0.148571   -2.095420    1.153201
C       0.136223   -0.650904    1.229022
O       0.224718    0.027868    2.242956
H       0.913104    1.824287    0.455294
H      -0.114078    1.835019   -1.009862
H      -0.839722    1.800326    0.625405
H      -0.191883   -0.073240   -2.093969
H      -0.168670   -2.556327   -2.204025
H       0.056775   -3.844741   -0.046636
H       0.246798   -2.613006    2.099364
