15

C      -0.007771    1.422185    0.055415
C       1.441165    1.947404   -0.001239
O       2.222197    1.480765    1.122684
C       1.962504    0.178538    1.332148
C       0.932484   -0.581999    0.832888
N      -0.109446   -0.040180    0.063369
N       1.075003   -1.853938    1.284867
N       2.140745   -1.923169    2.037339
N       2.687978   -0.675835    2.081836
H      -0.476956    1.809739    0.968126
H      -0.564228    1.821571   -0.796401
H       1.932418    1.618783   -0.925946
H       1.469382    3.037263    0.053776
H      -0.169333   -0.441703   -0.864810
H       3.514256   -0.504832    2.630799
