18

O      -0.112709    1.413799    0.205331
C       0.031860    0.005600    0.135136
C       0.454618   -0.564075    1.503648
N      -0.714831   -1.412087    1.885114
C      -1.884700   -0.463026    1.468587
C      -1.322214   -0.754321    0.023715
O      -1.580969   -1.237406   -1.345496
C      -0.738358   -2.412985   -0.983010
C      -1.084278   -2.109940    0.518967
H      -0.428702    1.720851   -0.651477
H       0.716338   -0.260158   -0.678339
H       1.354268   -1.181986    1.458055
H       0.601212    0.229116    2.240338
H      -2.843268   -0.927425    1.690918
H      -1.801185    0.543849    1.880078
H      -1.157057   -3.337162   -1.387096
H       0.292927   -2.277244   -1.317532
H      -2.004534   -2.651273    0.739396
