17

O       0.069900    1.373949    0.041833
C      -0.044605   -0.003021   -0.049335
C      -0.526941   -0.765650    1.167176
O      -0.863685    0.072159    2.240809
C      -2.260851    0.169382    2.523200
C      -3.090543    0.438961    1.293413
C      -2.673574    0.049335    0.091571
C      -1.403826   -0.704759   -0.058565
O      -1.476627   -1.913533   -0.770508
H      -0.149816    1.594742    0.958728
H       0.722289   -0.465521   -0.665798
H      -0.076573   -1.715274    1.444984
H      -2.608733   -0.747754    3.026435
H      -2.353152    0.987784    3.243924
H      -4.035515    0.955282    1.433134
H      -3.253754    0.246415   -0.805965
H      -1.436966   -1.705048   -1.710976
