18

C      -0.167521    1.589814   -0.003332
C      -0.030465    0.075361    0.002715
C       1.202627   -0.588321   -0.653459
C       2.132317   -0.288369    0.576266
C       2.582989   -1.761133    0.643406
O       3.044073   -2.307677    1.852863
C       1.092684   -1.854481    0.263933
C       0.708164   -0.623563    1.166092
H       0.771962    2.084169    0.264624
H      -0.465180    1.953514   -0.993183
H      -0.932307    1.917580    0.709802
H      -0.982664   -0.401164   -0.264739
H       1.513665   -0.587968   -1.699776
H       2.714939    0.616831    0.749867
H       3.296144   -2.081555   -0.122763
H       2.436889   -2.045783    2.553595
H       0.469585   -2.730412    0.074893
H       0.428519   -0.650065    2.222161
