20

C       0.073523    1.533309    0.011095
C      -0.001336    0.042307    0.005961
C       0.759466   -1.003629   -0.766817
C       0.874095   -0.989163    0.736647
C      -0.332155   -1.966306    0.773669
C      -0.641765   -3.155261    1.617583
N      -0.404688   -1.987549   -0.738819
C      -1.188793   -0.970567    0.064031
C      -2.665604   -0.805806   -0.062860
H       1.115723    1.864961   -0.055527
H      -0.465651    1.968951   -0.838275
H      -0.349177    1.957452    0.929589
H       1.496869   -0.938611   -1.558325
H       1.719551   -0.819847    1.389809
H      -0.793682   -2.870155    2.664927
H      -1.551815   -3.646784    1.259794
H       0.172725   -3.887477    1.578295
H      -3.153961   -1.785220   -0.073362
H      -3.076500   -0.226640    0.771903
H      -2.927388   -0.292794   -0.995321
