16

O       0.670188    0.194190   -0.823131
C      -0.084715    0.251651    0.374564
C      -1.438808   -0.395389    0.232523
N      -2.293919   -0.558728    1.415402
C      -2.707368   -1.847876    1.006221
O      -3.487411   -2.617494    1.486183
C      -1.812887   -1.816205   -0.219622
C      -2.211647   -0.573768   -1.028221
O      -3.519333   -0.105430   -1.106548
H       0.353951    0.888582   -1.408993
H       0.488296   -0.281976    1.139888
H      -0.208109    1.286863    0.728380
H      -2.983025    0.141565    1.670497
H      -1.202286   -2.607828   -0.630979
H      -1.623937   -0.474486   -1.942161
H      -4.047585   -0.750344   -1.589591
