21

C       0.054560    1.310450    0.609193
C      -0.069913    0.155557   -0.401412
C      -1.410738   -0.419359   -0.452552
C      -2.529597   -0.865443   -0.484344
C      -3.870855   -1.437810   -0.517473
C      -3.905437   -2.885628   -0.002588
C      -5.300932   -3.494978   -0.029174
C      -5.420379   -4.921128    0.479086
O      -6.259849   -2.876481   -0.431957
H       1.073608    1.709068    0.611546
H      -0.632947    2.122326    0.356917
H      -0.184665    0.969381    1.620193
H       0.212272    0.512926   -1.400324
H       0.655234   -0.629268   -0.149311
H      -4.560245   -0.830861    0.080479
H      -4.273384   -1.412082   -1.536489
H      -3.234736   -3.521495   -0.595049
H      -3.517895   -2.939742    1.022961
H      -5.085483   -4.983390    1.520605
H      -6.456048   -5.254848    0.406205
H      -4.774979   -5.589949   -0.101305
