19

O       0.163955    0.583153   -1.228829
C      -0.097957    0.249593    0.129923
C      -1.406878   -0.499611    0.158565
C      -1.570458   -1.935145   -0.224184
C      -0.317037   -2.814840   -0.307945
C       0.283432   -2.868372    1.114934
C      -0.707404   -2.147906    2.046192
O      -0.652221   -2.152741    3.251392
C      -1.794324   -1.524301    1.224137
H       0.923994    1.172600   -1.250572
H       0.721618   -0.346824    0.551651
H      -0.188213    1.153680    0.751439
H      -2.242625    0.133405   -0.128789
H      -2.412601   -2.194282   -0.855499
H      -0.602796   -3.816829   -0.638923
H       0.387908   -2.422151   -1.046722
H       0.405237   -3.891390    1.482825
H       1.268835   -2.398746    1.197745
H      -2.766639   -1.426156    1.691101
