18

C      -0.178166    1.550249   -0.022481
C       0.078421    0.033586    0.036899
C       0.787230   -0.479671   -1.179422
C       2.041190   -0.938070   -1.303617
C       2.403801   -1.367320   -2.703574
C       1.122075   -1.104811   -3.517047
C       0.111858   -0.547687   -2.504610
O      -1.032207   -0.227784   -2.740586
H       0.763067    2.106180   -0.081681
H      -0.781379    1.799962   -0.898557
H      -0.714728    1.884916    0.870381
H       0.654356   -0.216274    0.934683
H      -0.887298   -0.479999    0.117231
H       2.753479   -1.009707   -0.486717
H       3.265008   -0.800609   -3.078381
H       2.706419   -2.421490   -2.724645
H       1.265549   -0.377387   -4.321511
H       0.712917   -2.007497   -3.979818
