20

C      -0.047948    1.560361    0.036667
C       1.450064    1.891071    0.041517
C       2.041507    0.930859    1.096144
C       1.297447   -0.301096    0.763194
C       0.009499    0.011461   -0.018600
C       0.182355   -0.444938   -1.481482
C       1.337597    0.372365   -2.118167
C       2.186271    0.992897   -1.010450
N       2.585215   -0.000441    0.052472
H      -0.521023    1.915037    0.959182
H      -0.590885    1.991746   -0.812047
H       1.715017    2.947620    0.068861
H       2.561718    1.152774    2.020604
H       1.360926   -1.187849    1.384080
H      -0.858390   -0.467319    0.441346
H       0.413705   -1.514908   -1.502093
H      -0.749427   -0.309025   -2.040009
H       1.965651   -0.262588   -2.751128
H       0.949552    1.170371   -2.761962
H       3.092528    1.461881   -1.400191
