19

C       0.000122    1.555244    0.134219
C       1.510899    1.802588    0.011268
O       2.027575    0.818077    0.966476
C       1.596704   -0.146135   -0.026893
C       1.966526    0.862979   -1.142462
C       1.177528    0.764375   -2.454144
C       0.237310   -0.447493   -2.380712
O      -0.574320   -0.469630   -1.214408
C       0.048859   -0.002145   -0.024471
H      -0.363539    1.870921    1.114027
H      -0.614135    2.016432   -0.642141
H       1.906777    2.808430    0.150435
H       2.036436   -1.137090    0.081951
H       3.048083    0.921908   -1.269532
H       0.606128    1.680500   -2.640481
H       1.849213    0.632397   -3.308374
H      -0.452949   -0.470014   -3.229273
H       0.847184   -1.364579   -2.428764
H      -0.432526   -0.527918    0.801842
