19

C       0.085999    1.420986   -0.310176
C       0.003340   -0.055053    0.101122
C       0.622881   -0.292573    1.484755
C      -1.438523   -0.573481    0.037480
C      -2.000411   -1.037424   -1.298094
C      -1.683288   -2.049643   -0.237711
C      -2.363674    0.076152    0.934392
N      -3.091326    0.608830    1.660019
H       1.125261    1.763432   -0.308584
H      -0.322888    1.579731   -1.312896
H      -0.476394    2.052020    0.386108
H       0.564008   -0.648644   -0.633257
H       0.082722    0.267504    2.255365
H       0.595663   -1.352006    1.758062
H       1.666472    0.036057    1.500812
H      -3.041284   -0.826413   -1.511609
H      -1.336057   -0.954023   -2.151240
H      -0.799453   -2.666720   -0.356989
H      -2.507040   -2.531653    0.274761
