15

O       0.213224    1.421862   -0.196398
C       0.044362    0.021295   -0.043523
C       0.626501   -0.545117    1.262703
C      -0.268700   -1.299276    1.926796
C      -1.506389   -1.276370    1.149825
C      -1.373986   -0.497754    0.016067
C      -2.626413   -0.566597   -0.614873
N      -3.478045   -1.328613    0.082191
N      -2.765292   -1.756639    1.158526
H      -0.325901    1.847410    0.479800
H       0.588458   -0.419422   -0.889913
H       1.643176   -0.333577    1.568541
H      -0.111170   -1.821860    2.861223
H      -2.967688   -0.103241   -1.528849
H      -3.215178   -2.364974    1.821103
