15

O      -0.175775    0.267853    1.027148
C      -0.107982    1.281017    0.358319
C      -1.293435    1.772872   -0.467114
C      -1.275056    3.243200   -0.797297
O      -0.957173    4.134465    0.281657
C      -0.008108    3.976925   -0.771020
C       1.274824    3.256782   -0.430169
N       1.041990    2.016176    0.284406
H      -1.313311    1.196222   -1.401328
H      -2.197423    1.501119    0.085189
H      -2.075803    3.598325   -1.445927
H       0.123033    4.850678   -1.409071
H       1.824808    3.085490   -1.369154
H       1.902798    3.909061    0.189328
H       1.788767    1.651590    0.857124
