23

C       4.139700   -5.596386   -0.138508
C       2.642532   -5.346894   -0.337385
C       2.035859   -4.441580    0.744649
C       0.574093   -4.138038    0.478016
C      -0.558006   -4.954248    1.026504
C      -0.364099   -6.165236    1.915249
N      -0.341328   -3.575253    1.475103
C       0.114672   -3.297590    2.828364
H       4.545080   -6.241731   -0.924021
H       4.702913   -4.656597   -0.155648
H       4.336960   -6.080587    0.824554
H       2.473770   -4.893043   -1.322706
H       2.105611   -6.303778   -0.349633
H       2.179105   -4.907006    1.724480
H       2.593880   -3.494987    0.774986
H       0.422882   -3.699995   -0.510761
H      -1.444113   -5.044106    0.396550
H       0.569170   -6.149301    2.480705
H      -1.186888   -6.253293    2.633902
H      -0.364894   -7.075331    1.305664
H       0.822435   -4.019343    3.260118
H       0.593554   -2.312858    2.841850
H      -0.757633   -3.250312    3.488765
