19

C      -0.240649    1.515590    0.076281
C       0.004998    0.014133   -0.091255
O       0.648087   -0.264991   -1.337072
C       0.774808   -0.564303    1.078712
C       0.059038   -1.148210    2.276641
C       0.838941   -2.049297    1.350147
C       0.146758   -3.069065    0.471130
H       0.710901    2.055796    0.158501
H      -0.782980    1.910928   -0.786793
H      -0.819149    1.721295    0.982543
H      -0.963531   -0.491140   -0.173416
H       1.536347    0.105965   -1.294251
H       1.686022   -0.009306    1.302061
H       0.442886   -0.941222    3.269668
H      -1.024806   -1.204387    2.225787
H       1.795717   -2.390557    1.738367
H      -0.853132   -2.740888    0.173785
H       0.715695   -3.253868   -0.445458
H       0.033152   -4.021029    1.001351
