18

C      -0.153245    1.592825    0.398478
C      -0.067063    0.084762    0.262925
O      -1.340490   -0.486538    0.057958
C       1.140363   -0.546255   -0.524378
N       1.997988   -0.101000    0.647225
C       0.773205   -0.750871    1.268378
C       0.847366   -1.891422    0.201298
C      -0.324874   -2.758667   -0.204376
O      -0.483923   -3.148584   -1.335762
H       0.825776    2.021965    0.608236
H      -0.537880    2.032874   -0.529931
H      -0.848630    1.854596    1.201666
H      -1.695482   -0.172686   -0.781235
H       1.443887   -0.386210   -1.559669
H       2.791249   -0.741406    0.735102
H       0.645384   -0.826962    2.349476
H       1.736084   -2.525774    0.311978
H      -0.993677   -3.082991    0.621620
