22

C       0.084043    1.492314   -0.168806
C       0.021280   -0.021130    0.060125
C      -1.400145   -0.567793    0.076733
C      -2.209385   -0.580681   -1.259455
C      -2.672962   -2.000678   -0.910136
C      -4.102813   -2.436838   -0.768563
C      -3.208694   -3.065511   -1.816295
C      -1.599124   -2.111102    0.179824
H       1.117767    1.851393   -0.188339
H      -0.382005    1.768375   -1.120986
H      -0.442028    2.034320    0.625119
H       0.592323   -0.536489   -0.724464
H       0.514772   -0.270736    1.009190
H      -1.980138   -0.062505    0.857574
H      -2.983681    0.181119   -1.387402
H      -1.550100   -0.557493   -2.135679
H      -4.374421   -3.035459    0.095684
H      -4.882478   -1.759158   -1.103277
H      -3.385877   -2.812489   -2.857256
H      -2.878210   -4.087706   -1.658515
H      -0.711854   -2.659948   -0.157536
H      -1.907838   -2.511586    1.149845
