20

C      -0.129679    1.509991    0.011267
N      -0.143044    0.058241   -0.042753
C      -0.104866   -0.700003    1.188696
C       0.402885   -0.117794    2.478612
C      -1.066743   -0.451934    2.319565
C      -0.077251   -0.633718   -1.213239
O      -0.042785   -1.858978   -1.266563
C      -0.037004    0.142973   -2.539878
O       0.071155   -0.758987   -3.598261
H       0.874622    1.907186    0.204999
H      -0.496091    1.931846   -0.923447
H      -0.795502    1.862906    0.803853
H       0.141882   -1.729991    0.973619
H       1.024087   -0.748441    3.104645
H       0.669070    0.932322    2.512582
H      -1.758507    0.379790    2.239854
H      -1.473046   -1.315639    2.833470
H      -0.951323    0.751791   -2.635684
H       0.813095    0.843132   -2.531367
H       0.063196   -1.632087   -3.166506
