19

O       0.048233    0.033192   -0.440213
C      -0.005837    1.188574   -0.083850
C      -1.352458    1.882670    0.105680
C      -1.481241    2.822555    1.321177
C      -0.733484    4.126701    1.127654
C       0.137904    4.688972    2.233441
C       0.770958    4.055767    1.035522
O       1.369791    2.811190    1.236887
C       1.311812    1.960655    0.104539
H      -1.543926    2.459405   -0.811685
H      -2.099908    1.085000    0.135915
H      -2.543371    3.032160    1.488087
H      -1.123532    2.310088    2.219318
H      -1.223899    4.845385    0.475775
H       0.215662    5.764306    2.346311
H       0.188615    4.128780    3.160834
H       1.290476    4.687494    0.313790
H       2.100664    1.213884    0.217787
H       1.511081    2.526908   -0.821157
