19

C      -0.097074    1.565226   -0.015817
C       0.027261    0.032434    0.006518
C       0.850707   -0.514616   -1.204424
C       1.302899   -1.914034   -0.771855
C       1.459275   -1.820314    0.750519
O       1.986527   -2.635735    1.459973
C       0.839685   -0.497632    1.217210
C      -1.306999   -0.576133    0.004935
C      -2.400734   -1.076044    0.002696
H       0.896632    2.024995   -0.005369
H      -0.622452    1.897744   -0.915897
H      -0.654516    1.926685    0.852732
H       0.267327   -0.505862   -2.127189
H       1.719471    0.137899   -1.350908
H       0.525893   -2.660815   -0.975111
H       2.224687   -2.268117   -1.238605
H       1.664777    0.192226    1.440303
H       0.259700   -0.626893    2.132277
H      -3.367643   -1.515520    0.004145
