21

C      -0.089359    1.631611    0.044567
C       0.064658    0.114834    0.030196
C       1.059122   -0.615257   -0.932277
C       2.361886    0.175138   -1.017531
O       2.767805    0.573535    0.294783
C       2.330066   -0.362761    1.268579
C       2.602671   -1.819903    0.805009
C       1.210773   -1.760687    0.150489
C       0.774978   -0.652144    1.160496
H       0.864835    2.135049    0.210412
H      -0.515245    1.994323   -0.898319
H      -0.773457    1.934109    0.845742
H      -0.923728   -0.345289   -0.096086
H       0.702432   -0.899511   -1.925350
H       3.150110   -0.423534   -1.497961
H       2.240211    1.093277   -1.602193
H       2.727200   -0.023610    2.226348
H       3.498158   -1.998256    0.202162
H       2.598336   -2.514118    1.650916
H       0.632318   -2.666034   -0.038773
H       0.276732   -0.861617    2.109614
