21

C      -0.273798    1.418439    0.167530
C       0.044581   -0.057896   -0.000917
O       0.648101   -0.515689    1.195283
C       0.919808   -1.913547    1.222945
C       2.226466   -2.256218    0.487287
C       0.971764   -2.343821    2.619872
C       1.025382   -2.729370    3.758336
C       1.110451   -3.173829    5.142739
O      -0.107083   -3.804526    5.523046
H       0.640608    1.988653    0.354010
H      -0.750270    1.811102   -0.735852
H      -0.949538    1.569229    1.013861
H      -0.875970   -0.631457   -0.201977
H       0.711883   -0.205170   -0.864955
H       0.088548   -2.449903    0.733992
H       3.062923   -1.729778    0.953610
H       2.417389   -3.331834    0.533914
H       2.167083   -1.963373   -0.564640
H       1.964806   -3.862664    5.247953
H       1.325384   -2.301858    5.781916
H      -0.014458   -4.072925    6.442914
