19

C       0.439491    1.445462   -1.322939
C       0.353800   -0.037643   -0.973962
C       1.577444   -1.041235   -0.965611
C       2.027779   -0.496251    0.438767
C       2.847981    0.787253    0.598352
C       0.438548   -0.544238    0.515245
O      -0.367801   -0.156584    1.556425
C       0.626632   -1.916537   -0.134931
O       0.237559   -3.039876   -0.020148
H       0.799239    1.582339   -2.348501
H      -0.567534    1.872162   -1.272653
H       1.067821    2.032336   -0.657190
H      -0.503202   -0.457138   -1.513785
H       2.210365   -1.323117   -1.801191
H       2.478474   -1.273326    1.065599
H       2.434364    1.424658    1.387046
H       3.868304    0.525926    0.894569
H       2.924964    1.375600   -0.315345
H      -0.708370   -0.948965    1.988250
