19

C      -0.070432    1.589417   -0.029895
C       0.010241    0.061457   -0.035186
C       0.847749   -0.549124   -1.151394
C       1.526599   -1.600208   -0.693551
C       2.859826   -2.305746   -0.786512
C       2.961612   -2.070128    0.771377
C       1.414407   -1.803072    0.789356
C       0.720465   -0.508689    1.238495
O       0.743417    0.014995    2.318298
H       0.927522    2.034689   -0.095647
H      -0.663113    1.954897   -0.873720
H      -0.531646    1.938308    0.897459
H      -1.014989   -0.341965   -0.026097
H       0.963999   -0.069845   -2.117457
H       2.776404   -3.373829   -1.013606
H       3.626220   -1.866024   -1.429357
H       3.321909   -2.907630    1.371456
H       3.535310   -1.173466    1.014304
H       0.846497   -2.675619    1.132927
