17

C       0.026226    1.433225   -0.053218
N       0.167274   -0.009263    0.069901
C       0.648886   -0.711362   -1.026831
N       1.211548   -0.092878   -2.061951
N       1.607366   -1.108569   -2.872437
C       1.294732   -2.328222   -2.377952
C       0.665602   -2.130272   -1.167889
C       0.134238   -3.143951   -0.204980
H       1.005727    1.875971   -0.250057
H      -0.642657    1.739836   -0.871285
H      -0.354745    1.833088    0.889932
H      -0.628223   -0.457825    0.500649
H       2.075098   -0.887970   -3.732674
H       1.541439   -3.237229   -2.905354
H       0.569004   -3.017407    0.794025
H      -0.956080   -3.076581   -0.089333
H       0.359171   -4.161223   -0.537274
