21

C       0.053519    1.563401    0.072640
C       0.037812    0.047328   -0.026016
C       0.746640   -0.511062   -1.266221
C       1.094287   -1.978933   -1.033466
C       0.264481   -2.756257    0.050601
C       1.483268   -3.700052    0.208899
C       2.097569   -2.280332    0.124273
C       0.966722   -1.825997    1.095331
O       0.634727   -0.466486    1.165827
H       1.083198    1.932901    0.105800
H      -0.449030    2.008696   -0.791792
H      -0.458561    1.893400    0.980746
H      -1.008193   -0.301079   -0.054776
H       0.091414   -0.393691   -2.137053
H       1.662694    0.057470   -1.475720
H       1.281242   -2.530017   -1.960649
H      -0.787490   -3.043435    0.007302
H       1.579660   -4.226545    1.162994
H       1.686711   -4.362322   -0.636094
H       3.152599   -2.003573    0.164248
H       1.031081   -2.196560    2.122216
