17

C      -0.193041    1.544109    0.147879
C       0.100790    0.050932    0.008024
N       0.740245   -0.501328    1.194401
C       0.216839   -1.327992    2.117633
C       1.199284   -1.542129    3.077881
C       1.111020   -2.370603    4.271355
O       2.005224   -2.519497    5.076077
C       2.298463   -0.772384    2.616782
N       2.019860   -0.147132    1.484716
H       0.731720    2.093014    0.338581
H      -0.642240    1.923753   -0.774376
H      -0.885596    1.732117    0.973518
H      -0.817099   -0.519762   -0.157277
H       0.767714   -0.131275   -0.839440
H      -0.791301   -1.704825    2.035946
H       0.130213   -2.881266    4.406984
H       3.269010   -0.670226    3.077795
