19

C       0.026021    1.511554    0.148064
C      -0.051173    0.015550    0.034918
C       1.136140   -0.852244   -0.339142
C       0.495385   -1.027431    1.018508
O       1.171806   -0.752593    2.199321
C      -0.787932   -1.811927    0.916959
O      -0.868158   -3.193279    0.805716
C      -1.986694   -0.959248    1.256887
C      -1.321915   -0.798650   -0.095052
H       0.974103    1.819011    0.600507
H      -0.050487    1.993522   -0.833329
H      -0.784509    1.901182    0.773700
H       1.048641   -1.623115   -1.099977
H       2.095902   -0.342754   -0.316696
H       1.926912   -1.346733    2.260230
H      -1.047035   -3.553355    1.680709
H      -2.931139   -1.495477    1.239489
H      -1.922298   -0.172450    2.003466
H      -1.835748   -1.034971   -1.019724
