19

C      -0.101432    1.500617   -0.030646
C       0.023502   -0.029921    0.042574
C       0.754728   -0.477479    1.309087
N      -1.265192   -0.723294   -0.025371
C      -2.004231   -0.689935   -1.200663
C      -1.634363   -0.399774   -2.483050
O      -2.680262   -0.586487   -3.324010
N      -3.776103   -0.998719   -2.598314
C      -3.375889   -1.060328   -1.352839
H       0.886079    1.971651   -0.069507
H      -0.662270    1.810827   -0.916434
H      -0.623202    1.885631    0.853278
H       0.600193   -0.377489   -0.824735
H       0.197943   -0.176016    2.205119
H       0.869539   -1.564153    1.328977
H       1.744940   -0.017035    1.367781
H      -1.830183   -0.578230    0.801172
H      -0.717200   -0.072268   -2.942216
H      -4.072167   -1.370545   -0.585735
