23

C      -0.030096    1.583074    0.122282
C       0.036150    0.055811   -0.037617
C       0.704786   -0.323409   -1.349011
C       0.341322   -1.588687   -2.087512
C      -0.052480   -0.244914   -2.650074
C       0.751673   -0.580009    1.154536
C       0.087380   -0.503019    2.548833
O       0.211065   -1.926816    2.735401
C       0.659099   -2.107244    1.376150
H       0.976706    2.016621    0.146968
H      -0.568507    2.040715   -0.712775
H      -0.537992    1.869005    1.049322
H      -0.993633   -0.332248   -0.059640
H       1.753141   -0.034608   -1.402095
H       1.129608   -2.146151   -2.581373
H      -0.448005   -2.209251   -1.676891
H      -1.101914    0.029228   -2.607119
H       0.463865    0.119284   -3.531241
H       1.789611   -0.231433    1.184281
H       0.613370    0.062076    3.327018
H      -0.965377   -0.183818    2.529907
H      -0.099354   -2.612046    0.762486
H       1.593149   -2.678042    1.323252
