19

O      -0.054997    1.357073   -0.297804
C       0.001146    0.006758    0.148944
C      -1.398130   -0.572138    0.031870
C      -2.066549   -0.548738   -1.358779
C      -1.166985   -1.504958   -2.149479
O      -0.802160   -2.494422   -1.159058
C      -1.491566   -2.109402    0.041711
C      -2.993142   -2.301524   -0.203210
O      -3.308246   -1.229696   -1.117796
H       0.826225    1.735168   -0.224435
H       0.709302   -0.585730   -0.445718
H       0.328214   -0.049863    1.199340
H      -2.063249   -0.108170    0.764925
H      -2.268147    0.417326   -1.815451
H      -1.717698   -1.977130   -2.969388
H      -0.263840   -1.026934   -2.547899
H      -1.067937   -2.660454    0.881450
H      -3.196893   -3.271583   -0.669406
H      -3.596772   -2.203474    0.708396
