13

C      -0.129828    1.500697   -0.133113
C      -0.018420    0.012637    0.050962
O       1.264992   -0.580886   -0.121114
C       0.690357   -0.620462    1.193216
C       1.334087    0.155790    2.214112
C       1.864395    0.782532    3.101424
C       2.462712    1.496941    4.098365
N       2.969124    2.107404    4.947314
H       0.693722    2.021770    0.359396
H      -0.109620    1.746825   -1.199308
H      -1.076166    1.864416    0.279867
H      -0.832403   -0.579240   -0.371816
H       0.366594   -1.610001    1.514897
