20

C      -0.097044    1.394356    0.097566
O      -0.176022   -0.010533    0.119687
C       0.729613   -0.594910    1.037550
C       0.626130   -2.080213    0.945227
C      -0.370056   -2.914305    1.704819
C       1.103335   -3.150302    1.900526
N       1.865723   -3.898115    0.821427
C       0.947719   -4.317472   -0.257151
C       1.326754   -2.893774   -0.165709
H       0.907682    1.744897   -0.188763
H      -0.818872    1.751472   -0.640925
H      -0.344344    1.834463    1.077212
H       1.759596   -0.267464    0.809270
H       0.506699   -0.264320    2.066795
H      -0.822272   -2.389796    2.541879
H      -1.046487   -3.614056    1.228445
H       1.587546   -3.066912    2.865577
H       1.462638   -4.908280   -1.009721
H      -0.053613   -4.667592   -0.036257
H       1.988891   -2.417536   -0.882574
