18

O      -0.000790   -0.011375   -0.266761
C       0.027896    1.186476   -0.072012
N       1.128864    1.887015    0.297027
C       2.546294    1.515260    0.073313
C       2.675877    2.791132   -0.809515
C       1.491350    3.304505    0.058340
C       2.045316    3.835967    1.385907
O       3.235699    3.141244    1.743011
C       3.269274    1.755508    1.401507
H      -0.867615    1.838738   -0.140555
H       2.699435    0.521624   -0.347588
H       3.612913    3.347461   -0.766942
H       2.372116    2.601216   -1.839593
H       0.712190    3.936674   -0.373834
H       2.327191    4.891095    1.303477
H       1.273888    3.736035    2.164214
H       2.803267    1.140403    2.184609
H       4.329753    1.492775    1.330757
