20

C      -0.067399    1.491249   -0.057494
C       0.006789   -0.018807   -0.012832
C      -1.299712   -0.720693    0.409860
C      -1.235107   -2.186387    0.494877
N      -0.631337   -1.413842    1.598842
C       0.686277   -0.816640    1.131377
C       1.569720   -1.576129    0.108803
C       0.915402   -0.741936   -1.051324
O       0.218040   -1.419330   -2.073500
H       0.930084    1.939143   -0.122655
H      -0.643081    1.827955   -0.928394
H      -0.555939    1.888627    0.838814
H      -2.232087   -0.175863    0.533692
H      -2.140170   -2.694112    0.817473
H      -0.631642   -2.755348   -0.200780
H       1.189774   -0.329647    1.966783
H       2.637530   -1.379339    0.236837
H       1.424935   -2.657358    0.051414
H       1.637711   -0.034564   -1.483107
H       0.863436   -1.783056   -2.687801
