19

C       0.786180    0.586493   -0.016600
O      -0.023161   -0.486471   -0.504714
C      -1.267541   -0.622322    0.118295
C      -2.404451   -0.004318   -0.679110
O      -2.154948    1.345377   -1.030645
C      -1.625725   -1.922722    0.797225
C      -0.411303   -2.433211    1.563713
O      -0.256546   -1.162635    2.257369
C      -1.419972   -0.648905    1.612190
H       1.659009    0.632267   -0.672766
H       0.251998    1.542345   -0.055262
H       1.108131    0.393886    1.010728
H      -2.582616   -0.615988   -1.577022
H      -3.326865   -0.011445   -0.088252
H      -1.417903    1.333176   -1.650185
H      -2.516450   -2.491247    0.561187
H      -0.643864   -3.227418    2.280018
H       0.472316   -2.692767    0.973020
H      -2.082138   -0.012333    2.190031
