19

C      -0.131364    1.496148    0.207719
C      -0.253966   -0.000849   -0.076315
O      -1.442217   -0.279397   -0.823697
C       0.919938   -0.530024   -0.904465
C       0.949233   -2.021300   -1.062202
C      -0.061855   -2.878342   -1.420833
N       0.503934   -4.134722   -1.424942
C       1.812128   -3.990555   -1.075105
N       2.114653   -2.733164   -0.849151
H       0.763330    1.712172    0.800507
H      -0.075602    2.060349   -0.728751
H      -0.999030    1.858301    0.771557
H      -0.280302   -0.550311    0.878334
H      -2.195926   -0.004785   -0.292304
H       0.882077   -0.034462   -1.884168
H       1.859080   -0.230060   -0.430934
H      -1.096349   -2.704165   -1.656909
H       0.033082   -4.996826   -1.641477
H       2.486841   -4.830392   -1.000710
