19

C      -0.039090    1.541155   -0.155937
C      -0.062276    0.045386    0.084967
O       1.203240   -0.637635   -0.045424
C       0.601834   -0.594519    1.250334
C       1.309600    0.137507    2.337089
C       0.788708    0.020748    3.751819
C       2.075629   -0.657609    3.370771
C      -1.188878   -0.641012   -0.510351
C      -2.140357   -1.183128   -1.006517
H       0.847933    1.997102    0.285623
H      -0.031051    1.743087   -1.230935
H      -0.931672    2.009322    0.269779
H       0.180398   -1.552032    1.566380
H       1.739797    1.090165    2.051366
H       0.830901    0.902783    4.380346
H      -0.084364   -0.601487    3.919134
H       2.073503   -1.738456    3.276711
H       3.008738   -0.244079    3.735750
H      -2.975304   -1.671737   -1.444654
