15

C       0.177551    1.553058    0.161717
C      -0.008816    0.039042    0.094219
C      -1.425956   -0.433300   -0.083312
N      -2.362006    0.448964   -0.164399
O      -3.668338   -0.020214   -0.329812
C      -3.961728   -1.357781   -0.404865
O      -5.097047   -1.719566   -0.547204
C      -2.788659   -2.243527   -0.296732
N      -1.589187   -1.820783   -0.145133
H       1.236434    1.792174    0.290906
H      -0.177506    2.037097   -0.751467
H      -0.378910    1.983906    0.997769
H       0.575858   -0.393606   -0.728072
H       0.376720   -0.446141    1.000388
H      -2.986836   -3.312625   -0.352614
