19

C      -0.219036    1.450950    0.040162
N       0.119949    0.039528    0.011764
C       1.202002   -0.427271   -0.892398
C       1.880550   -1.134733    0.288047
C       2.180003   -0.104651    1.366570
C       0.760618   -0.561283    1.183244
C      -0.063422   -1.204747    2.256414
C       2.445097   -2.439757    0.272566
N       2.902139   -3.503894    0.254764
H       0.635859    2.119038    0.244496
H      -0.650134    1.738188   -0.923884
H      -0.978493    1.625703    0.808722
H       0.830443   -1.101990   -1.668525
H       1.803877    0.365729   -1.355866
H       2.688423   -0.497392    2.240726
H       2.506119    0.885373    1.059170
H      -0.552649   -0.443742    2.875645
H      -0.839267   -1.837386    1.817059
H       0.561554   -1.816081    2.913398
