16

O       1.168458    0.281261   -0.348164
C       0.629203    1.348228   -0.397955
C      -0.857324    1.767826   -0.576438
C      -0.445225    3.121302    0.031802
C       1.043305    2.728488    0.086718
N       0.539988    3.810758   -0.738579
C       0.572721    3.882403   -2.213174
C       0.961588    2.690988   -2.962408
C       1.319511    1.727653   -3.585922
H      -1.277429    1.786803   -1.583024
H      -1.493093    1.158799    0.072317
H      -0.995634    3.667964    0.789701
H       1.818112    2.942344    0.815859
H      -0.416234    4.226686   -2.537774
H       1.273178    4.688273   -2.463147
H       1.627042    0.860372   -4.116824
