17

C       0.002253    1.505469    0.003478
C       0.016310    0.051474    0.055222
C       0.025045   -1.153020    0.100412
C       0.051231   -2.590398    0.109081
O       1.179682   -3.200754   -0.467668
C      -0.430358   -3.436111    1.278660
C      -1.687465   -2.816330    1.872027
O      -2.336429   -2.793294    0.565449
C      -1.209079   -3.433136   -0.014357
H       0.596011    1.874657   -0.840112
H      -1.017779    1.885845   -0.119382
H       0.415974    1.945573    0.917588
H       1.226730   -2.908036   -1.384886
H       0.220028   -4.176671    1.722935
H      -2.225470   -3.485689    2.551480
H      -1.601445   -1.816068    2.308577
H      -1.356296   -4.166686   -0.799349
