19

O      -0.594732    0.083584    0.310335
C       0.099271    0.662437   -0.480112
C       1.155252    1.697992   -0.086830
C       1.216209    2.807579   -1.026949
C       1.217958    3.701106   -1.836579
C       1.249185    4.803947   -2.774888
C       0.715227    6.205149   -2.327772
C       1.872489    6.857451   -3.128680
C       2.614139    5.495304   -3.102734
H       0.032019    0.474574   -1.573868
H       0.947352    2.024330    0.937648
H       2.120048    1.167163   -0.061252
H       0.757829    4.509804   -3.709289
H      -0.312201    6.455105   -2.600204
H       0.839421    6.338943   -1.250412
H       1.561733    7.131115   -4.141127
H       2.376776    7.714138   -2.677685
H       3.298469    5.419903   -2.254071
H       3.132459    5.167731   -4.006383
