15

C      -0.296635    1.455943    0.044105
N       0.015819    0.033519    0.012626
C       0.197717   -0.663163   -1.164279
N       0.472732   -1.906825   -1.272487
C       0.616695   -2.697718   -0.102621
N       0.891292   -3.947209   -0.143195
C       0.433968   -2.008701    1.173308
C       0.147986   -0.702585    1.173356
F      -0.036950    0.016589    2.272935
H       0.476662    2.017917    0.575038
H      -0.348833    1.814042   -0.984948
H      -1.258832    1.637727    0.530775
H       0.086095   -0.051432   -2.058317
H       0.977271   -4.228278   -1.121929
H       0.530028   -2.553263    2.101689
