19

C      -0.011931    1.529050   -0.068401
C       1.536666    1.448331    0.017782
C       1.334076    0.122473    0.812038
C      -0.003586   -0.021223    0.024766
C       0.241869   -0.611993   -1.374727
C       1.638242   -0.209256   -1.908352
C       2.108611    1.169065   -1.383193
H      -0.447692    1.990011    0.822750
H      -0.451212    1.985217   -0.962300
H       2.063929    2.268853    0.511275
H       2.086585   -0.666652    0.724928
H       1.150472    0.319944    1.871608
H      -0.845602   -0.507128    0.524470
H       0.165367   -1.705424   -1.350764
H      -0.550924   -0.261382   -2.047753
H       2.360024   -0.964197   -1.579153
H       1.659142   -0.236361   -3.002305
H       1.792409    1.974393   -2.058379
H       3.204529    1.194242   -1.364546
