25

C      -0.143109    1.551635   -0.078281
C       0.020837    0.029619    0.012321
C       0.769928   -0.494188    1.255805
C       2.228780    0.002335    1.271206
C       0.056554   -0.117630    2.588581
C       0.386315   -1.250542    3.588736
C       0.576918   -2.487329    2.722903
C      -0.473538   -2.762460    1.674743
C       0.790220   -2.027177    1.298408
H       0.821224    2.065417   -0.139373
H      -0.714581    1.824455   -0.971268
H      -0.678643    1.952226    0.788898
H      -0.971509   -0.437582   -0.010213
H       0.542457   -0.328308   -0.885645
H       2.284926    1.093698    1.329109
H       2.774388   -0.402671    2.129530
H       2.760126   -0.312407    0.365614
H       0.365685    0.863178    2.960582
H      -1.025296   -0.060451    2.426976
H       1.318890   -1.033337    4.122680
H      -0.394154   -1.368342    4.348845
H       1.127024   -3.328260    3.131349
H      -0.568639   -3.784961    1.325376
H      -1.417090   -2.227186    1.714735
H       1.495373   -2.534086    0.646575
