14

N       0.015225    1.298053    0.108525
C      -0.007226   -0.056650    0.039190
N      -1.153506   -0.682689    0.017716
N      -1.094041   -2.042582   -0.001699
C       0.045406   -2.760379   -0.006323
C       1.260312   -2.143623   -0.001348
C       1.328327   -0.708818    0.009563
N       2.358424    0.074096   -0.012133
H       0.919777    1.709119   -0.073679
H      -0.825570    1.808972   -0.097594
H      -1.996161   -2.485254   -0.011232
H      -0.079735   -3.837146   -0.016942
H       2.169353   -2.732300   -0.012664
H       3.224064   -0.465567   -0.041813
