26

C      -0.147699   -6.490714   -0.866018
C       0.549293   -5.130615   -0.774107
C       0.999484   -4.780537    0.648247
C       1.692287   -3.414444    0.748741
C       2.088773   -3.085240    2.175201
C       3.443823   -3.418774    2.704675
N       3.032560   -2.028116    2.538365
C       3.692098   -1.238953    1.502828
C       4.893230   -0.501726    2.091267
H      -1.043610   -6.519533   -0.235790
H      -0.455634   -6.714760   -1.892145
H       0.514389   -7.297959   -0.533328
H       1.420632   -5.118711   -1.442383
H      -0.124924   -4.346313   -1.143034
H       0.128442   -4.795906    1.318045
H       1.679386   -5.559019    1.019655
H       2.569264   -3.405454    0.092550
H       1.013344   -2.637186    0.370540
H       1.253218   -3.146800    2.873926
H       3.585537   -3.762953    3.726212
H       4.160639   -3.823663    1.988760
H       4.023475   -1.844755    0.642950
H       2.962655   -0.514869    1.119612
H       5.639141   -1.210379    2.466192
H       5.372909    0.125433    1.333188
H       4.582494    0.132378    2.926190
