15

N      -0.122992    1.134419   -0.943191
C      -0.033355    0.084568   -0.250084
N       0.954753   -0.588712    0.476603
C       0.145645   -1.808645    0.706334
C       0.064040   -2.277741    2.077568
C      -0.021703   -2.685163    3.205049
C      -1.040026   -0.985305    0.118419
C      -2.436665   -0.896355    0.529706
O      -2.037193   -1.505268   -0.712273
H       0.769962    1.622860   -1.024168
H       1.949520   -0.572692    0.305777
H       0.402452   -2.634412    0.030822
H      -0.091653   -3.038564    4.204328
H      -2.809333   -1.583187    1.286782
H      -2.955658    0.054335    0.432095
