19

O      -0.139580    1.368111    0.388655
C       0.038659    0.019233   -0.058667
C      -1.337510   -0.612371    0.018920
C      -1.592502   -2.117726    0.025070
C      -1.506452   -2.612555    1.480540
C      -1.174980   -1.411883    2.363464
C      -2.076728   -0.597737    1.388401
O      -2.742371    0.541468    1.799321
C      -2.766960   -1.965889    0.966126
H       0.717450    1.802381    0.421417
H       0.426672   -0.006474   -1.088534
H       0.756424   -0.514585    0.578972
H      -1.996653   -0.133745   -0.714300
H      -1.505311   -2.806274   -0.805724
H      -1.351279   -3.661345    1.697296
H      -1.667800   -1.492565    3.336054
H      -0.131885   -1.105791    2.502941
H      -2.161586    1.282510    1.581783
H      -3.792340   -2.298035    0.905349
