21

C       0.339269    1.438245   -0.164361
C       0.089579   -0.050357    0.086286
C       0.668635   -0.541362    1.416708
C       0.815855   -2.081365    1.587700
C       2.318146   -1.786341    1.774426
C       3.317470   -2.459384    0.857130
O       2.119023   -0.386895    1.445708
C       0.040202    0.118795    2.561556
C      -0.487432    0.646043    3.504783
H       1.411213    1.652605   -0.137497
H      -0.046540    1.735986   -1.143669
H      -0.149327    2.053675    0.596494
H      -0.984973   -0.271419    0.076536
H       0.550989   -0.646068   -0.709523
H       0.291526   -2.521286    2.435166
H       0.579185   -2.635344    0.676264
H       2.640395   -1.882761    2.820339
H       2.997201   -2.391030   -0.187074
H       4.298784   -1.982729    0.947019
H       3.426930   -3.517021    1.121682
H      -0.945691    1.117877    4.338740
