19

C       0.036277    1.593694    0.129217
C      -0.050181    0.068184   -0.005131
C       0.809659   -0.623803    1.073281
C      -1.475451   -0.410842    0.030511
C      -2.648491    0.199948    0.422496
C      -3.707793   -0.739988    0.270482
C      -3.157055   -1.901722   -0.212002
N      -1.806529   -1.692242   -0.351637
H       1.075489    1.927064    0.049612
H      -0.546930    2.095316   -0.647936
H      -0.344278    1.921925    1.102383
H       0.373207   -0.202374   -0.984804
H       0.776530   -1.713945    0.978983
H       1.856833   -0.311426    0.997179
H       0.446460   -0.367920    2.074059
H      -2.739614    1.214248    0.778754
H      -4.752433   -0.576714    0.486725
H      -3.602346   -2.849019   -0.470468
H      -1.151885   -2.370909   -0.699904
