16

C      -0.188274    1.470665    0.245143
C       0.026856   -0.011151    0.026773
C       1.358830   -0.557162   -0.412522
C       0.848417   -0.836719    0.979519
N      -1.133967   -0.675493   -0.530961
N      -2.112567   -1.202540    0.193648
N      -2.988393   -1.618970   -0.666812
N      -2.548657   -1.339532   -1.911291
N      -1.397517   -0.748727   -1.829237
H       0.717745    1.919109    0.660384
H      -0.419231    1.973559   -0.698732
H      -1.010670    1.645946    0.945316
H       1.358323   -1.370062   -1.128126
H       2.159452    0.161453   -0.543768
H       1.293386   -0.312618    1.817195
H       0.502836   -1.838186    1.204059
