17

O       0.574584    0.988657   -0.589266
C       0.197533   -0.219667   -0.002299
C      -0.002765   -0.258786    1.511009
O       0.434222    0.446323    2.378393
C      -1.192519   -1.213065    1.383317
C      -1.275947   -0.747857   -0.100064
C      -2.377734    0.202223   -0.599398
C      -2.622789   -0.889009   -1.661083
O      -1.573604   -1.718730   -1.105697
H       0.744961    1.610188    0.130255
H       0.852837   -1.040223   -0.333753
H      -0.895029   -2.265084    1.444879
H      -2.046041   -1.034313    2.039578
H      -3.199778    0.379222    0.095631
H      -1.997590    1.151226   -0.979667
H      -3.596339   -1.389533   -1.619011
H      -2.407330   -0.602956   -2.696060
