16

N       0.355490    1.341865    0.374112
C       0.124206   -0.007911    0.111882
C      -1.069322   -0.646434   -0.062414
O      -0.871046   -1.993958   -0.223870
C       0.456575   -2.208822   -0.142548
C       1.133110   -1.042662    0.050654
C       2.620175   -0.843392    0.137929
C       2.991736   -0.253361    1.488110
O       3.208580    0.919028    1.667426
H       1.323642    1.624421    0.319872
H      -0.251591    1.982778   -0.114703
H      -2.091979   -0.312145   -0.091562
H       0.784164   -3.229486   -0.259597
H       3.128876   -1.804879    0.007758
H       2.974680   -0.152266   -0.636003
H       3.009559   -0.977276    2.331885
