17

O      -0.131863    1.403351   -0.888293
C      -0.028012    0.166648   -0.198768
C      -1.376262   -0.493941    0.023357
C      -1.985440   -1.327351   -1.072057
C      -1.435666   -1.992471    0.166250
N      -2.297672    0.291687    0.808398
C      -2.193558    0.449265    2.158703
O      -1.330835   -0.040531    2.853754
H      -0.533339    2.033381   -0.281692
H       0.593959   -0.482418   -0.823188
H       0.474182    0.286583    0.770515
H      -3.063403   -1.299215   -1.191688
H      -1.433178   -1.408450   -2.001481
H      -0.503153   -2.541009    0.092437
H      -2.138287   -2.394080    0.885641
H      -3.041809    0.776697    0.331205
H      -3.005616    1.090977    2.558801
