23

C      -0.347060    1.304600    0.086400
O       0.301484    0.069953   -0.117500
C       0.810871   -0.494275    1.064752
C      -0.208890   -1.276863    1.957774
C      -0.102566   -2.407716    0.892287
C       1.374879   -1.918096    0.810805
C       1.916204   -2.319020    2.201237
C       3.291580   -1.764391    2.570284
C       0.721590   -1.784498    3.074835
H       0.325575    2.042629    0.551593
H      -0.652538    1.676647   -0.894639
H      -1.239946    1.207263    0.721417
H       1.453673    0.236391    1.579035
H      -1.165623   -0.846086    2.256156
H      -0.279818   -3.436669    1.219867
H      -0.667506   -2.186035   -0.011680
H       2.006089   -2.117317   -0.056114
H       1.961947   -3.412302    2.261490
H       3.322304   -0.671222    2.515457
H       3.564682   -2.048641    3.592414
H       4.066766   -2.152579    1.900348
H       1.037415   -0.980717    3.749224
H       0.258395   -2.566566    3.683105
