14

N       0.049683   -1.123892    0.126245
C      -0.010982    0.032253    0.077259
C      -0.042635    1.450231    0.003186
C      -1.152642    2.206190   -0.033779
C      -0.799471    3.649880   -0.027005
N      -0.064266    4.039056    1.213684
C       0.691453    3.715272   -0.008453
C       1.230888    2.290213   -0.027680
H      -2.165823    1.825506   -0.036224
H      -1.425986    4.384625   -0.519091
H      -0.108897    5.052637    1.307406
H       1.235024    4.502904   -0.517943
H       1.871383    2.082555    0.835466
H       1.816500    2.084401   -0.931085
