14

O      -0.009747    1.423344    0.009535
C       0.029737    0.020509    0.001819
C      -1.451051   -0.483768    0.013269
C      -2.136442   -0.032441    1.234482
C      -2.683249    0.324293    2.240093
C      -2.159650   -0.019340   -1.189651
C      -2.725583    0.348190   -2.180686
C      -1.397195   -1.966020    0.004745
N      -1.315621   -3.117483   -0.002157
H       0.893531    1.753341    0.004430
H       0.510524   -0.385204   -0.898888
H       0.527525   -0.394586    0.888900
H      -3.174552    0.644572    3.126023
H      -3.233858    0.677801   -3.053523
