20

C      -0.004143    1.542997   -0.070507
C      -0.050656    0.039201    0.003311
N       0.404288   -0.784283   -1.195853
C      -0.336711   -1.904073   -0.474698
C      -0.696277   -3.158590   -1.226970
C       0.539749   -1.986351    0.785977
C       0.728672   -0.702566    1.101800
C      -1.377763   -0.813205   -0.011818
O      -2.184141   -0.970915    1.111835
H       1.023123    1.898147   -0.202318
H      -0.602620    1.917567   -0.907430
H      -0.404193    1.984523    0.848206
H      -0.176773   -0.502466   -1.993851
H       0.202027   -3.679737   -1.573722
H      -1.262456   -3.841557   -0.585085
H      -1.316188   -2.932924   -2.100871
H       0.903866   -2.889214    1.256314
H       1.292309   -0.249698    1.905655
H      -2.041132   -0.513998   -0.831165
H      -1.597570   -1.235011    1.834380
