16

C       0.460422    1.476323    0.100025
O       1.064698    0.277506   -0.390093
C      -0.291182    0.210999    0.059069
C      -0.546389   -0.604819    1.271386
C       0.517082   -0.966250    2.287769
C      -0.236258   -2.054997    1.589425
O      -1.507603   -2.276132    2.204428
C      -1.920955   -0.928438    1.857052
H       0.843870    1.832190    1.054668
H       0.272310    2.243369   -0.649570
H      -1.017224    0.082799   -0.746451
H       1.527232   -0.802982    1.925789
H       0.356269   -0.799453    3.349691
H       0.199831   -2.859619    1.009057
H      -2.253052   -0.352233    2.728776
H      -2.718678   -0.954867    1.104639
