24

C      -0.135622    1.455705    0.225799
C       0.038313   -0.038647   -0.056338
C       0.777389   -0.406593   -1.365494
C       0.014459    0.108405   -2.599633
C       2.220104    0.131012   -1.360942
N       0.803066   -1.885998   -1.384697
C       1.355958   -2.669054   -2.352841
C       1.241866   -4.170096   -2.109342
O       1.909111   -2.230235   -3.349036
H       0.826038    1.969478    0.310339
H      -0.716584    1.953419   -0.555648
H      -0.667769    1.599186    1.171077
H       0.583781   -0.497464    0.779754
H      -0.952089   -0.513459   -0.082968
H       0.013315    1.201557   -2.627606
H       0.490982   -0.260581   -3.508618
H      -1.024591   -0.237153   -2.584068
H       2.752848   -0.198340   -0.462601
H       2.754034   -0.237435   -2.237686
H       2.227665    1.224250   -1.384193
H       0.372472   -2.352445   -0.603599
H       0.697886   -4.436058   -1.198991
H       0.742483   -4.625295   -2.968455
H       2.248806   -4.592944   -2.056911
