21

C       0.060105    1.645478   -0.048379
C      -0.161556    0.132513   -0.158123
C       0.738396   -0.504427   -1.212364
C       2.218212   -0.715163   -0.817758
O       2.063673   -2.147976   -0.789161
C       0.742141   -2.072256   -1.344933
C      -0.267710   -2.908495   -0.572445
C       0.727667   -2.448967   -2.821329
O       1.702870   -2.673160   -3.485615
H       1.098822    1.878717    0.209508
H      -0.166996    2.148380   -0.994637
H      -0.578917    2.081954    0.724762
H       0.024192   -0.335114    0.816194
H      -1.212299   -0.066442   -0.403290
H       0.601382    0.009832   -2.169396
H       2.952719   -0.401434   -1.568056
H       2.508523   -0.319220    0.162966
H      -0.329997   -2.587055    0.468537
H      -1.264863   -2.841463   -1.019848
H       0.042966   -3.958341   -0.585188
H      -0.297900   -2.462288   -3.265198
