18

C      -0.067193    1.448975    0.039062
C       0.020450   -0.046804   -0.022745
C       0.933166   -0.927318   -0.873366
N       0.024487   -2.107499   -0.556389
C       0.303048   -2.250112    0.905296
O       0.772158   -3.168363    1.499263
C      -0.337151   -0.946758    1.211751
C      -1.047077   -1.074634   -0.140097
C      -2.489877   -1.143247   -0.499655
H       0.814562    1.878726    0.526106
H      -0.134329    1.871707   -0.969532
H      -0.949945    1.776757    0.597360
H       0.878097   -0.687102   -1.938995
H       1.977591   -1.074050   -0.575690
H      -0.692511   -0.523416    2.142330
H      -3.041947   -0.321459   -0.033239
H      -2.627698   -1.076388   -1.583630
H      -2.929867   -2.086238   -0.159788
