10

N      -0.008297    1.353628    0.009960
C       1.280333    1.824574   -0.000225
C       2.122166    0.736989   -0.014456
C       1.308499   -0.431096   -0.012842
C      -0.003428   -0.018369    0.002357
H      -0.832432    1.927727    0.021230
H       1.484718    2.883126    0.003543
H       3.200669    0.773431   -0.024884
H       1.648106   -1.455397   -0.021804
H      -0.925516   -0.576971    0.008394
