20

C      -0.210586    1.574608    0.206811
C       0.103486    0.102742    0.042661
C      -1.097437   -0.893162    0.147370
C      -0.387806   -1.632117    1.316820
C       0.832099   -0.672633    1.198208
C       2.089591   -1.235604    0.526341
C       1.712279   -1.211498   -0.964306
O       0.896519   -0.059643   -1.128615
H       0.712149    2.158086    0.284264
H      -0.775458    1.942889   -0.656032
H      -0.810004    1.746484    1.106045
H      -2.049810   -0.423838    0.406885
H      -1.241496   -1.483994   -0.760399
H      -0.910947   -1.563940    2.273344
H      -0.160050   -2.686212    1.132684
H       1.056789   -0.098740    2.099297
H       2.942001   -0.572272    0.704655
H       2.358863   -2.236002    0.878092
H       2.568452   -1.115413   -1.637523
H       1.163662   -2.125643   -1.243811
