17

C      -0.102426    1.507204   -0.013171
N       0.098647    0.070325    0.032326
C       0.730685   -0.542744   -1.163308
C       1.376447   -1.895182   -0.694021
C       1.544456   -1.576791    0.757622
C       0.808279   -0.477902    1.103296
N       0.888833   -0.241413    2.429040
N       1.659582   -1.178777    2.946141
N       2.041751   -2.002879    1.938823
H       0.832553    2.064042   -0.199833
H      -0.815512    1.754858   -0.805183
H      -0.516627    1.839421    0.941134
H      -0.004037   -0.683911   -1.960580
H       1.525453    0.119964   -1.544429
H       0.690492   -2.738041   -0.849071
H       2.296017   -2.111871   -1.244488
H       2.649205   -2.775472    2.157384
