17

C      -0.374598    1.384950    0.170781
O       0.970213    0.938977   -0.055655
C      -0.047241   -0.036381    0.040333
C      -0.051175   -1.184193    1.055705
N      -0.464044   -2.147536   -0.015180
C      -1.951817   -2.202832   -0.210672
C      -1.881403   -1.223033   -1.412560
C      -0.389744   -1.042210   -1.061787
H      -0.567332    1.807397    1.156420
H      -0.836227    1.916295   -0.660994
H       0.947018   -1.414884    1.441943
H      -0.749072   -1.108260    1.897136
H      -2.300247   -3.212411   -0.445449
H      -2.520150   -1.836204    0.652483
H      -2.041875   -1.703437   -2.379714
H      -2.503002   -0.326155   -1.359136
H       0.353487   -1.135054   -1.858535
