18

C      -0.272479    0.748761    1.179830
N       0.052757    0.213681   -0.138459
C       1.139338   -0.760340   -0.135372
C       0.884086   -2.021878    0.646834
N      -0.127903   -2.852715    0.398638
N       0.050971   -3.782059    1.327959
C      -0.812666   -4.935642    1.481622
N       1.098903   -3.564178    2.110962
N       1.637764   -2.445661    1.691577
H       0.590169    1.302075    1.567466
H      -1.104853    1.451978    1.085459
H      -0.546206   -0.009503    1.932313
H      -0.771681   -0.214675   -0.546575
H       1.360390   -1.025854   -1.175203
H       2.037631   -0.292843    0.280174
H      -0.803510   -5.528877    0.564907
H      -0.425855   -5.521829    2.314094
H      -1.833189   -4.608582    1.691463
