19

C      -0.097374    1.516859   -0.038818
C      -0.071742   -0.002402   -0.167958
N      -1.371741   -0.566170    0.168509
C      -1.545924   -1.934766    0.099983
N      -2.757389   -2.482269   -0.047004
N      -2.511774   -3.797501   -0.010428
C      -3.572213   -4.771174   -0.134575
N      -1.246218   -4.141924    0.138412
C      -0.599125   -2.974543    0.210500
H       0.886216    1.937777   -0.264094
H      -0.815783    1.959334   -0.738480
H      -0.381481    1.815613    0.974273
H       0.253761   -0.289300   -1.182264
H       0.669178   -0.415202    0.527285
H      -2.155227   -0.061571   -0.223856
H      -4.086768   -4.650663   -1.091969
H      -3.116037   -5.758414   -0.078507
H      -4.296482   -4.647021    0.675162
H       0.470204   -2.937892    0.333575
