16

C      -0.165114    1.643954   -0.250508
C      -0.015114    0.173293   -0.025754
C       0.512334   -0.947070   -0.810016
C       1.523251   -1.351967    0.359281
C       0.510282   -0.596863    1.200920
C      -0.501421   -1.262354    1.798666
C      -1.543584   -1.420571    0.725332
O      -2.541933   -2.081557    0.742282
N      -0.998742   -0.815694   -0.500590
H       0.790957    2.161361   -0.122033
H      -0.531467    1.830243   -1.263064
H      -0.880705    2.072241    0.458827
H       0.743167   -1.019101   -1.868045
H       1.699232   -2.399608    0.611305
H       2.463762   -0.841099    0.129333
H      -0.388813   -2.070810    2.513053
