22

C      -0.122453    1.583785   -0.003848
C       0.008125    0.056640    0.016179
C       0.816356   -0.522866   -1.172653
C       1.593423   -1.742452   -0.617072
C       2.965062   -1.945378   -1.271529
C       1.621899   -1.464295    0.880592
C       2.472450   -2.260533    1.821271
C       0.761140   -0.497292    1.204626
H       0.864756    2.058894    0.014733
H      -0.643730    1.923531   -0.905463
H      -0.685924    1.947013    0.862554
H      -1.010245   -0.364379    0.011718
H       0.191049   -0.772391   -2.035016
H       1.539898    0.231758   -1.507537
H       1.009252   -2.662649   -0.782427
H       3.608788   -1.073049   -1.109983
H       3.481272   -2.824220   -0.871554
H       2.861501   -2.087889   -2.352476
H       3.539971   -2.151581    1.594090
H       2.315893   -1.954501    2.859279
H       2.248826   -3.333306    1.747191
H       0.571702   -0.156273    2.218733
