13

O      -0.097184    1.452687    0.010774
C       0.041112    0.043461    0.001957
C      -1.380311   -0.535294    0.012400
C      -1.396675   -1.987809    0.004937
C      -1.396278   -3.198041   -0.001713
C      -1.395577   -4.558855   -0.009069
C      -1.394694   -5.766475   -0.015353
H       0.781181    1.843711    0.004506
H       0.573147   -0.311257   -0.892978
H       0.590020   -0.320704    0.882797
H      -1.903459   -0.154019    0.898234
H      -1.920126   -0.144756   -0.859291
H      -1.395005   -6.827983   -0.021084
