21

C      -0.266374    1.453446    0.080240
C       0.055165   -0.033607   -0.127487
C       0.861267   -0.256090   -1.409999
O       0.092187    0.219304   -2.503920
C       0.798030   -0.588365    1.076270
C       0.081508   -1.118455    2.270419
C       0.885580   -2.084146    1.405660
C       0.160500   -3.095115    0.606287
O       0.599614   -4.185166    0.328201
H       0.652624    2.031813    0.235210
H      -0.776176    1.858207   -0.796099
H      -0.903715    1.598191    0.957734
H      -0.892965   -0.571285   -0.250614
H       1.823144    0.279621   -1.334907
H       1.090555   -1.326849   -1.521436
H       0.592809    0.073344   -3.311481
H       1.728142   -0.063690    1.286535
H       0.459857   -0.911217    3.264623
H      -1.000003   -1.201646    2.210049
H       1.833601   -2.441575    1.792921
H      -0.858771   -2.790245    0.275116
