16

O      -0.072887    1.358625   -0.005021
C       0.018970   -0.012285   -0.058509
C       0.632458   -0.736104   -1.294583
C       0.893169   -2.204302   -1.110780
C      -0.524784   -1.726167   -1.256311
C      -1.117622   -0.991592   -0.022258
C      -0.201203   -0.854483    1.196755
C       0.640454   -1.834872    1.830535
N       1.310350   -2.588125    2.400273
H       0.792705    1.715060    0.230307
H       0.992598   -0.162972   -2.138725
H       1.277678   -2.688396   -2.004564
H       1.284816   -2.622696   -0.194361
H      -1.159246   -2.035279   -2.075965
H      -2.177062   -0.804764    0.095679
H      -0.691719   -0.227740    1.939577
