17

C      -0.181237    1.622510    0.145213
C       0.062960    0.107145   -0.008066
C       1.035799   -0.378572    0.969179
C       1.832854   -0.773476    1.777370
C      -1.261225   -0.661870    0.064715
C      -1.242920   -2.189173    0.253562
C      -1.932382   -1.867477    1.579487
O      -2.375134   -2.450464    2.513415
O      -1.922322   -0.507752    1.366844
H       0.758681    2.172663    0.064166
H      -0.861605    1.978979   -0.634543
H      -0.626646    1.834310    1.119822
H       0.464313   -0.080168   -1.014969
H       2.536637   -1.117486    2.494734
H      -1.932525   -0.307054   -0.722613
H      -1.850439   -2.772629   -0.439572
H      -0.256578   -2.640489    0.367063
