18

N      -0.915088    1.082890   -0.470542
C      -0.814705   -0.170748   -0.563064
O      -0.871584   -0.929665    0.553792
C      -0.926511   -2.338694    0.379428
C      -2.353815   -2.830703    0.214297
O      -2.829694   -2.401256   -1.044293
C      -4.196896   -2.652741   -1.253819
C      -4.583341   -2.086020   -2.609539
O      -5.658561   -2.255029   -3.117585
H      -0.818444    1.506021   -1.391178
H      -0.663258   -0.753850   -1.479691
H      -0.324216   -2.649557   -0.484273
H      -0.490480   -2.776616    1.281325
H      -2.375182   -3.930938    0.286744
H      -2.977492   -2.423974    1.025036
H      -4.429330   -3.729767   -1.235688
H      -4.822646   -2.172129   -0.482591
H      -3.776908   -1.489228   -3.089820
