17

C      -0.125598    1.519718   -0.197048
C      -0.030965    0.029851    0.008551
N       1.293193   -0.590482   -0.137907
C       0.648261   -0.605539    1.186324
C       1.323679    0.157027    2.255941
C       2.516620    0.810981    2.216890
O       2.789297    1.376820    3.401730
N       1.751616    1.099069    4.284982
C       0.897671    0.382247    3.598265
H       0.718194    2.034695    0.267113
H      -0.125286    1.760054   -1.265265
H      -1.050917    1.911374    0.238693
H      -0.877559   -0.535575   -0.380213
H       1.224686   -1.503637   -0.577416
H       0.208646   -1.544770    1.519056
H       3.249112    0.940951    1.437122
H      -0.006770    0.040357    4.082724
