23

C      -0.096167    1.528053    0.006651
C      -0.037215    0.019957    0.080654
C       1.264717   -0.693581   -0.222576
C       0.697851   -0.743868    1.179787
C       1.427718   -0.085203    2.328303
C      -0.098753   -1.989283    1.469483
C      -1.473402   -1.787670    2.057360
C      -1.314656   -2.001297    0.570244
C      -1.306251   -0.751402   -0.308366
H       0.841420    1.992393    0.325800
H      -0.288993    1.859158   -1.020998
H      -0.900096    1.928747    0.635947
H       1.240735   -1.595373   -0.828014
H       2.141068   -0.072370   -0.383252
H       1.915133    0.845640    2.024092
H       0.744691    0.145177    3.153885
H       2.207849   -0.747169    2.722857
H       0.436071   -2.906925    1.698927
H      -1.898729   -2.597582    2.640146
H      -1.744875   -0.795262    2.406573
H      -1.680389   -2.931212    0.149798
H      -2.199365   -0.135095   -0.141357
H      -1.301281   -1.013913   -1.373621
