18

O       0.018130   -0.042583    0.181824
C       0.006898    1.161995    0.032951
C      -1.299686    1.952053   -0.066690
C      -1.155103    3.176573   -0.949947
C      -1.535845    3.071277   -2.382960
N      -2.346842    3.872599   -1.442616
C      -0.003321    4.074022   -0.534146
C       1.243264    3.281613   -0.255647
C       1.248236    1.963155   -0.018427
H      -2.086477    1.278028   -0.417143
H      -1.567246    2.263525    0.954720
H      -1.005442    3.649339   -3.134833
H      -1.932262    2.123575   -2.738387
H      -3.187855    3.361110   -1.184586
H       0.187890    4.829802   -1.303273
H      -0.282500    4.639101    0.368840
H       2.182325    3.830551   -0.250272
H       2.168153    1.415868    0.161246
