16

N      -0.016743    1.434926    0.116773
C       0.001906    0.029132    0.042444
C      -1.185590   -0.710374    0.044866
C      -1.166755   -2.099907    0.037488
C       0.040349   -2.806888    0.027382
N       0.059818   -4.213381    0.086774
C       1.227831   -2.067372    0.022874
C       1.208996   -0.677837    0.030256
H       0.802129    1.868842   -0.287627
H      -0.851968    1.846366   -0.277549
H      -2.139447   -0.190130    0.053757
H      -2.106159   -2.645879    0.040719
H      -0.763987   -4.643097   -0.312054
H       0.890110   -4.620621   -0.322059
H       2.181692   -2.587617    0.014547
H       2.148405   -0.131869    0.027594
