18

O      -0.193855    1.392494   -0.100042
C      -0.014655   -0.011468   -0.066894
C       0.152528   -0.560980    1.357722
C      -1.360109   -0.378560    1.638805
C      -1.305058   -1.728596    2.338182
N      -0.183528   -2.086402    1.375476
C      -0.978451   -2.147371    0.102059
C      -1.404434   -0.678178    0.051930
O      -2.446649   -0.333511   -0.787055
H       0.656063    1.819835    0.044032
H       0.655137   -0.352927   -0.867653
H       0.962410   -0.286753    2.031913
H      -1.829582    0.531285    2.007365
H      -0.914182   -1.666599    3.358281
H      -2.161658   -2.410005    2.314233
H      -0.353341   -2.441731   -0.745198
H      -1.804999   -2.855212    0.193114
H      -2.416292    0.624887   -0.897528
