20

O      -0.061140    1.454704    0.007348
C       0.060373    0.034708    0.015814
C      -1.374208   -0.472531    0.237087
C      -1.543238   -1.973145    0.544012
C      -1.761684   -2.857715   -0.685921
O      -0.822754   -2.587803   -1.734358
C       0.486662   -2.739215   -1.373555
N       1.290207   -1.788097   -1.186530
C       0.759548   -0.427743   -1.282321
H       0.819407    1.829073   -0.096946
H       0.680354   -0.292728    0.866899
H      -1.754518    0.106701    1.084355
H      -1.984409   -0.187835   -0.628473
H      -0.681088   -2.335844    1.116403
H      -2.416012   -2.118540    1.191538
H      -1.724266   -3.921564   -0.407580
H      -2.737953   -2.660318   -1.137091
H       0.820169   -3.776128   -1.275128
H       0.068337   -0.306144   -2.123765
H       1.614744    0.237276   -1.450618
