22

C      -0.047325    1.495217   -0.062609
C       0.103485   -0.002712   -0.014263
C       0.320104   -0.752601   -1.318581
C       0.724713   -2.177773   -0.900367
O       1.574383   -2.730297   -1.896581
C       1.401005   -2.010312    0.483294
C       0.762639   -0.768599    1.085669
C       1.380877   -0.163772    2.318976
N      -0.718764   -0.801769    0.936590
H       0.793849    1.958557   -0.590261
H      -0.963563    1.774553   -0.596073
H      -0.100607    1.935215    0.937937
H      -0.561320   -0.745340   -1.967279
H       1.151204   -0.300971   -1.874123
H      -0.178380   -2.788310   -0.786770
H       1.709615   -3.659645   -1.688065
H       1.285121   -2.895751    1.118840
H       2.473871   -1.838176    0.331087
H       2.447374    0.036827    2.166948
H       0.898458    0.777317    2.600526
H       1.293402   -0.848039    3.171272
H      -1.123976   -0.166007    1.622340
