18

C      -0.153892    1.372153    0.317791
O      -0.128750   -0.033359    0.423080
C      -1.154632   -0.655564   -0.343112
C      -1.122722   -2.116246   -0.079423
C      -0.974304   -2.836562    1.072635
N      -0.849179   -2.327398    2.370843
C      -1.042033   -4.218336    0.687526
C      -1.225079   -4.226178   -0.659135
O      -1.273788   -2.966571   -1.147832
H       0.653103    1.760997    0.943206
H       0.009023    1.703304   -0.719489
H      -1.110750    1.792520    0.665365
H      -2.126266   -0.206019   -0.067738
H      -1.009935   -0.475172   -1.419923
H      -0.455837   -1.393717    2.355243
H      -0.294139   -2.923287    2.970961
H      -0.964181   -5.079296    1.333817
H      -1.333428   -5.016895   -1.383300
