17

N      -0.032169   -1.175642    0.005272
C      -0.027000   -0.020176    0.001980
C      -0.019318    1.454921   -0.034004
N      -0.698684    2.023911    1.156685
C       0.045239    3.211103    1.552111
C       0.854845    3.345813    2.901487
C       2.132397    3.694119    2.045219
C       1.381839    3.043254    0.905978
C       1.406239    2.013838    0.070255
H      -0.505342    1.743787   -0.982540
H      -1.683838    2.183662    0.992513
H      -0.472103    4.153991    1.323966
H       0.517626    4.101357    3.614440
H       0.951096    2.374705    3.389208
H       2.254183    4.775235    1.929270
H       3.088223    3.254246    2.333217
H       2.251203    1.513250   -0.382174
