21

O       0.152734    1.509907   -0.397390
C       0.119727    0.105115   -0.195165
C      -1.298983   -0.457986   -0.314514
C      -1.462018   -1.934571    0.008533
C      -0.339434   -2.883831   -0.081946
O      -0.783492   -2.391296    1.189749
C      -2.869738   -2.446075   -0.142088
C      -3.338969   -3.653521    0.622613
C      -3.847771   -2.283965    0.997334
H      -0.322212    1.922214    0.331210
H       0.764484   -0.311952   -0.975243
H       0.548721   -0.177594    0.776211
H      -1.957379    0.100576    0.366139
H      -1.677809   -0.269092   -1.326220
H      -0.553599   -3.934733   -0.269061
H       0.651838   -2.552675   -0.383783
H      -3.272335   -2.313046   -1.142938
H      -4.013849   -4.342153    0.126930
H      -2.630137   -4.111637    1.302542
H      -3.469483   -1.856739    1.919775
H      -4.874037   -2.023642    0.764231
