21

O       0.064880    1.409544   -0.206334
C       0.039923    0.013295   -0.078002
C       0.395230   -0.637487    1.287240
C      -0.790449   -1.627771    1.077653
C      -1.648771   -2.012992    2.249682
C      -2.464172   -3.282125    2.220898
C      -1.256913   -3.181996    3.120316
C      -1.367833   -0.658581    0.008638
O      -2.300907    0.230323    0.611285
H      -0.551663    1.743313    0.457689
H       0.639117   -0.392517   -0.897834
H       1.397947   -1.051260    1.413424
H       0.193565    0.054046    2.111394
H      -0.435334   -2.531778    0.569435
H      -2.105817   -1.169706    2.757216
H      -3.449073   -3.271210    2.674369
H      -2.389395   -3.915629    1.342657
H      -0.372006   -3.746646    2.844452
H      -1.414743   -3.104537    4.190420
H      -1.786811   -1.102880   -0.902454
H      -2.625199    0.815949   -0.080620
