16

N      -0.029157    1.237367    0.317989
C       0.036598    0.030210    0.021312
O       1.174808   -0.803692   -0.262944
C       0.220819   -1.677503   -1.036533
C      -0.698066   -2.974417   -1.004565
C      -0.747577   -3.467948    0.433164
C      -0.897050   -2.073683    1.096992
C      -0.861018   -1.194198   -0.179507
O      -1.812035   -1.968879   -1.060231
H       0.894173    1.671525    0.360610
H       0.191678   -1.278579   -2.049725
H      -0.724347   -3.666177   -1.845917
H      -1.607133   -4.119823    0.599531
H       0.161542   -3.999760    0.724953
H      -1.856303   -1.932978    1.599104
H      -0.094825   -1.834892    1.796415
