18

C      -0.163764    1.618072    0.059694
C       0.008792    0.108382    0.007332
O      -1.253522   -0.537043    0.047962
C       0.858482   -0.614430   -1.083389
C       2.231803    0.068559   -1.030249
C       2.358678    0.090905    0.510396
O       3.212687    0.577922    1.197836
C       1.073432   -0.627555    0.913950
N       1.110457   -1.749847   -0.109911
H       0.788245    2.153596    0.041487
H      -0.775295    1.957118   -0.782030
H      -0.676327    1.906782    0.985781
H      -1.722487   -0.229978    0.831475
H       0.429468   -0.861396   -2.054181
H       3.007125   -0.555741   -1.480440
H       2.283878    1.070949   -1.460989
H       0.920436   -0.860367    1.966799
H       0.220359   -2.236873   -0.008611
