15

O      -0.145470    0.049061    0.216197
C       0.030018    1.209095   -0.075483
C       1.324202    1.890496   -0.024881
C       2.642826    1.266903    0.395657
C       3.452196    2.560923    0.184220
O       3.147067    2.922227   -1.163816
C       1.747798    2.991596   -1.039168
C       1.484790    3.386492    0.371076
O       2.748370    3.520919    0.974079
H      -0.817977    1.849208   -0.413174
H       2.649975    0.936469    1.435240
H       2.966825    0.460647   -0.263846
H       4.520402    2.597699    0.373129
H       1.201288    3.274644   -1.926108
H       0.701820    4.024620    0.752130
