22

C      -0.026781    1.621165   -0.061790
C      -0.083242    0.097306    0.092475
C      -1.519333   -0.427348   -0.023265
C       0.822934   -0.607198   -0.930987
N       2.216423   -0.205507   -0.763477
C       3.122129   -1.058253   -0.866195
C       4.632051   -1.045429   -0.743565
C       4.501523   -2.553385   -1.038750
O       3.052654   -2.419314   -1.143778
H       1.004249    1.977756   -0.005811
H      -0.437878    1.928482   -1.031731
H      -0.612141    2.118979    0.718529
H       0.298885   -0.160007    1.090219
H      -1.936936   -0.211491   -1.014417
H      -1.567026   -1.511186    0.128573
H      -2.171787    0.044529    0.718496
H       0.695111   -1.695507   -0.854692
H       0.503436   -0.317298   -1.942962
H       5.146770   -0.453661   -1.502403
H       5.010534   -0.777571    0.244226
H       4.930464   -2.903165   -1.980942
H       4.774385   -3.230470   -0.225421
