15

O       0.646087    0.030013   -0.759780
C       0.198978    0.972160   -0.152249
C       1.038995    2.199250    0.166753
C       1.215855    3.055855   -1.081976
C       2.593425    3.452762   -1.526407
N       1.838117    2.478041   -2.296448
C       0.083706    3.973950   -1.406812
O      -0.883935    4.127278   -0.703613
H      -0.859669    0.993272    0.178441
H       0.565466    2.798443    0.948393
H       2.015156    1.848628    0.514352
H       2.752496    4.407554   -2.021119
H       3.412378    3.127010   -0.890163
H       2.118071    1.520915   -2.088846
H       0.205182    4.505711   -2.374635
