14

C      -0.005383    1.525122    0.197545
N       1.321080    1.974035   -0.235799
C       2.338765    1.161046   -0.666781
N       2.326358   -0.120688   -0.771291
C       1.111539   -0.670840   -0.386282
C       0.021811    0.041362    0.061716
N      -0.908467   -0.902936    0.311721
N      -0.424569   -2.141654    0.034256
N       0.797820   -1.998626   -0.387967
H      -0.201578    1.843616    1.234953
H      -0.791485    1.984675   -0.424548
H       1.499486    2.963734   -0.215303
H       3.239304    1.708192   -0.940249
H      -1.851533   -0.814422    0.654875
