15

C       0.035374    1.307795    0.214531
O      -0.041827    0.024499   -0.383394
C      -1.246486   -0.620400   -0.137856
C      -1.399243   -2.028719   -0.709353
N      -0.447044   -2.883085    0.004123
C      -1.788182   -2.599728    0.630413
C      -1.593988   -1.243988    1.271424
O      -1.770246   -0.785161    2.361246
H       1.009594    1.722673   -0.051678
H      -0.754435    1.974419   -0.165885
H      -0.050719    1.252316    1.306449
H      -2.113695    0.006103   -0.419561
H      -1.797002   -2.295063   -1.679626
H      -0.518422   -3.821762   -0.390024
H      -2.469447   -3.402180    0.880480
