15

N      -0.020210    1.356782    0.329367
C      -0.000736   -0.011775    0.042646
C      -1.053987   -0.849211   -0.170029
O      -0.596902   -2.147256   -0.331857
C       0.742071   -2.091355   -0.212225
O       1.438237   -3.231566   -0.398964
C       0.934687   -4.392677    0.121871
N       1.517254   -5.472983   -0.149537
C       1.184904   -0.830877    0.017860
H       0.764967    1.853359   -0.070828
H      -0.881727    1.809913    0.054797
H      -2.120515   -0.719764   -0.218059
H       0.048121   -4.236196    0.741258
H       1.048786   -6.246817    0.317455
H       2.207327   -0.524929    0.165247
