19

C      -0.436803    1.497193    0.097470
C       1.064871    1.374766    0.114698
C       0.184156    0.127635    0.033835
O       0.030630   -0.583254    1.230777
C       0.877549   -1.688582    1.412513
O       0.374337   -2.850649    0.824395
C       0.683477   -3.031348   -0.543313
C       0.355273   -1.909085   -1.489111
C       0.166575   -0.610558   -1.249400
H      -0.931158    1.741956    1.029980
H      -0.921248    1.881071   -0.793209
H       1.626545    1.672635   -0.763484
H       1.568479    1.534740    1.060969
H       1.895017   -1.465167    1.048085
H       0.895117   -1.875028    2.488963
H       1.759060   -3.267948   -0.655262
H       0.139627   -3.933512   -0.845069
H       0.342520   -2.228353   -2.530133
H       0.013138    0.035892   -2.111493
