17

C      -0.161235    1.307439    0.019961
O       0.169058   -0.080653    0.032325
C       0.793818   -0.497113   -1.101541
C       0.005769   -0.912601   -2.402173
C       1.035021   -0.874991   -3.519639
N       2.049790   -1.444138   -2.526071
C       0.852095   -1.895562   -1.664133
C       2.184250   -0.299925   -1.587156
N       3.152751    0.434542   -1.278276
H       0.739091    1.922708   -0.085948
H      -0.857498    1.539635   -0.797052
H      -0.640447    1.521525    0.976637
H      -1.075011   -0.834544   -2.417166
H       0.847804   -1.600367   -4.316005
H       1.331245    0.088206   -3.948774
H       0.730434   -2.868722   -1.212939
H       3.978280    0.181389   -1.827158
