18

C      -0.399274   -0.524855   -1.265714
C      -0.119512    0.067598   -0.257952
C       0.253114    0.801502    0.945525
C       1.591586    1.523171    0.784599
C       1.697218    2.846183    0.031833
C       1.131404    3.603350    1.273349
C       2.309083    4.576931    1.359326
C       2.901084    3.228666    0.946283
N       1.970197    2.462527    1.929252
H      -0.658453   -1.054338   -2.148658
H      -0.536419    1.519455    1.198123
H       0.327495    0.113759    1.797776
H       2.385241    0.794952    0.579417
H       1.551930    3.079523   -1.027736
H       0.089044    3.761267    1.552258
H       2.341789    5.379658    0.618692
H       2.568765    4.932935    2.359632
H       3.941635    2.919861    0.831000
