20

C       0.186954    1.590480    0.110225
C       0.166458    0.072229    0.045656
C       0.777266   -0.548887   -1.215387
C       1.183998   -1.942179   -0.715625
C       2.265942   -2.622938   -1.570182
C       2.640304   -3.943495   -1.064252
N       2.921411   -4.985062   -0.650119
C       1.617502   -1.640616    0.733866
O       0.942542   -0.451694    1.129218
H       1.208619    1.965883   -0.004441
H      -0.436503    2.017898   -0.681631
H      -0.198476    1.935176    1.073577
H      -0.874205   -0.279267    0.150305
H       0.081093   -0.576354   -2.057738
H       1.663253    0.022714   -1.521263
H       0.299440   -2.588555   -0.699188
H       1.917436   -2.736827   -2.602943
H       3.165016   -1.995689   -1.605376
H       1.368508   -2.457805    1.420217
H       2.704112   -1.475617    0.792625
