16

O      -0.295933    1.434473    0.314137
C      -0.171076    0.059158    0.150875
C      -0.538854   -0.944161    1.232789
N      -1.652022   -0.449559    2.025930
C      -2.547215   -0.292764    0.863173
C      -1.393724   -0.785497   -0.032782
O      -1.554989   -1.689902   -1.057360
C      -1.606191    0.357877    3.121808
O      -2.511963    1.070230    3.494250
H       0.390036    1.739376    0.918285
H       0.665156   -0.279034   -0.464678
H       0.102894   -1.748588    1.571637
H      -3.382193   -0.997879    0.885741
H      -2.903526    0.728429    0.712907
H      -1.603644   -1.205459   -1.889232
H      -0.646792    0.246379    3.670854
