23

C      -0.004225    1.419504    0.156832
C      -0.034267   -0.099278    0.186029
O      -1.364065   -0.528981   -0.023113
C      -1.511337   -1.931627   -0.009902
C      -2.987737   -2.272210   -0.184525
C      -3.216576   -3.809065   -0.198105
C      -4.055097   -4.064444    1.075288
O      -3.849579   -2.934424    1.907741
C      -3.819783   -1.816711    1.032620
H       1.014952    1.784399    0.315534
H      -0.360543    1.791796   -0.807892
H      -0.646529    1.831007    0.940670
H       0.625932   -0.514221   -0.594769
H       0.338912   -0.475998    1.153508
H      -0.914818   -2.389637   -0.817667
H      -1.147443   -2.351794    0.944178
H      -3.343071   -1.795631   -1.102237
H      -3.733239   -4.145546   -1.099851
H      -2.261508   -4.342122   -0.151436
H      -5.122999   -4.162304    0.818987
H      -3.754340   -4.954835    1.633196
H      -3.372948   -0.972888    1.561847
H      -4.841395   -1.539970    0.724141
