25

C      -0.211995    1.594888   -0.012838
C       0.025742    0.083883   -0.025539
C       0.759971   -0.450474   -1.301486
C       1.913745   -1.305250   -0.725309
C       2.976043   -0.346524   -0.141313
C       2.280380    0.203881    1.147385
C       0.900254   -0.490034    1.123035
C       1.290312   -1.887420    0.570965
C       0.181703   -2.925942    0.405272
H       0.713101    2.160773   -0.162887
H      -0.899460    1.882042   -0.816001
H      -0.655345    1.923491    0.934043
H      -0.958205   -0.393027    0.042637
H       0.089811   -1.043771   -1.930868
H       1.140397    0.365240   -1.925836
H       2.319554   -2.035458   -1.429923
H       3.896788   -0.884088    0.105877
H       3.245414    0.445762   -0.846653
H       2.832292   -0.088374    2.046093
H       2.212459    1.293955    1.161162
H       0.392407   -0.486715    2.091564
H       2.075045   -2.328304    1.199398
H      -0.631704   -2.584596   -0.240622
H       0.581353   -3.846734   -0.033557
H      -0.255729   -3.188462    1.374959
