16

O      -0.133958    1.244256   -0.097086
C      -0.112342   -0.134488    0.115417
C      -0.739766   -0.733385    1.327019
C      -1.465779   -0.829798   -0.014772
N      -2.574570    0.028045   -0.276178
C      -3.849453   -0.315622    0.059810
O      -4.170619   -1.387722    0.524839
C      -1.466270   -2.158930   -0.693524
O      -0.634023   -3.006086   -0.477536
H       0.286055    1.677565    0.652906
H       0.723877   -0.661801   -0.338706
H      -0.323235   -1.658972    1.707245
H      -1.190981   -0.063921    2.050486
H      -2.365440    0.968039   -0.580108
H      -4.569043    0.497026   -0.159972
H      -2.276099   -2.298640   -1.436694
