21

C      -0.236004    1.558852    0.005033
C       0.064183    0.048592    0.022420
C       0.820752   -0.434405   -1.190441
C       2.114170   -0.763533   -1.167021
C       2.846986   -1.296274   -2.369695
O       3.727656   -2.364271   -2.028924
C       1.831853   -1.736724   -3.431944
O       0.841190   -0.747201   -3.627412
C       0.040180   -0.546766   -2.481003
H       0.691510    2.137679   -0.037356
H      -0.846918    1.843848   -0.856964
H      -0.780768    1.853252    0.907284
H       0.640172   -0.193753    0.921934
H      -0.884198   -0.501170    0.102381
H       2.694976   -0.681860   -0.249880
H       3.503316   -0.524851   -2.791635
H       3.212141   -3.015517   -1.539260
H       2.316676   -1.898280   -4.397749
H       1.377761   -2.692206   -3.113003
H      -0.700094   -1.363775   -2.379772
H      -0.530395    0.369739   -2.668500
