21

C       0.021707    1.601537   -0.150225
C       0.034998    0.081202    0.032768
C      -1.365573   -0.554563    0.116969
C      -1.364004   -2.098531    0.078781
C      -2.166694   -2.534632    1.285053
C      -2.421924   -3.979982    1.557538
C      -2.568475   -1.484840    2.018922
C      -2.114950   -0.214667    1.424609
O      -2.291653    0.898400    1.872957
H       1.042071    1.996321   -0.185504
H      -0.474014    1.876177   -1.088556
H      -0.516413    2.087609    0.665288
H       0.571665   -0.384623   -0.803690
H       0.597722   -0.181814    0.938612
H      -1.973553   -0.159683   -0.707256
H      -1.793681   -2.502624   -0.846444
H      -0.345459   -2.506177    0.138494
H      -1.476642   -4.529033    1.652557
H      -3.002874   -4.129425    2.470489
H      -2.962874   -4.441359    0.721714
H      -3.140872   -1.522150    2.937852
