18

N       0.106732    1.260677   -0.686088
C      -0.028644    0.046668   -0.056878
C      -1.224017   -0.582502    0.058947
C      -1.455002   -1.938510    0.547412
O      -2.581947   -2.348604    0.776165
C      -0.253280   -2.878597    0.677229
C       0.776456   -2.482860    1.742831
O       1.144761   -1.110568    1.739922
C       1.283945   -0.510423    0.477673
H       0.847988    1.871207   -0.378559
H      -0.740363    1.741219   -0.949581
H      -2.129364   -0.053773   -0.228730
H      -0.640143   -3.872278    0.916897
H       0.236875   -2.946051   -0.301830
H       0.370720   -2.662987    2.742769
H       1.672791   -3.112355    1.625211
H       1.738091   -1.189988   -0.259858
H       1.989079    0.319909    0.607543
