21

C      -0.010234    1.547025   -0.038816
C       0.036314    0.028497    0.006826
C      -1.197285   -0.600966   -0.627279
C       1.295235   -0.751812   -0.188125
C       2.542076   -0.070627    0.384174
C       1.859251    0.016701    1.784296
C       0.616302   -0.690416    1.229699
C      -0.053052   -1.769925    1.962456
O       0.221633   -2.075282    3.103068
H       0.874287    2.019639    0.390166
H      -0.098607    1.887640   -1.076796
H      -0.884269    1.918803    0.506990
H      -1.311036   -0.231446   -1.652277
H      -1.134923   -1.690921   -0.678107
H      -2.107817   -0.339335   -0.077769
H       1.310577   -1.610146   -0.851374
H       3.410535   -0.731777    0.389641
H       2.829626    0.871428   -0.092489
H       2.350182   -0.602379    2.535841
H       1.705547    1.013913    2.204580
H      -0.841282   -2.321017    1.406717
