19

C       0.092743    1.607442    0.253919
C      -0.003879    0.099369   -0.042295
C      -1.402835   -0.402305   -0.143244
C      -2.181340   -0.811307   -1.192907
N      -1.833264   -0.925227   -2.541806
C      -2.905312   -1.157187   -3.496801
C      -3.416759   -1.152566   -0.569187
N      -3.386629   -0.966065    0.729424
O      -2.120556   -0.485203    1.002830
H       1.138442    1.918991    0.334443
H      -0.380134    2.196810   -0.537816
H      -0.410006    1.847073    1.194684
H       0.511755   -0.137587   -0.979770
H       0.517101   -0.458799    0.745135
H      -1.206474   -0.192399   -2.842301
H      -2.482437   -1.182399   -4.503802
H      -3.365717   -2.132704   -3.308396
H      -3.701126   -0.394957   -3.471670
H      -4.321441   -1.529892   -1.023212
