18

C      -0.750868    1.311252    0.387415
C      -0.362424   -0.145042    0.354609
O       0.466971   -0.648854    1.074718
C      -1.058420   -1.009044   -0.725259
O      -1.578370   -0.483198   -1.680743
C      -1.050338   -2.513116   -0.492520
N      -2.125123   -2.787774    0.459220
C      -3.433214   -3.092544   -0.116664
C      -2.606914   -4.164403    0.506162
H      -0.107752    1.852216    1.081681
H      -0.695206    1.738278   -0.617358
H      -1.796665    1.401358    0.704062
H      -1.177882   -3.021828   -1.460637
H      -0.101783   -2.807131   -0.035925
H      -4.286766   -2.678854    0.411929
H      -3.524442   -3.095271   -1.200912
H      -2.143487   -4.887348   -0.162667
H      -2.845595   -4.544746    1.494930
