14

O      -0.818309    0.999761    0.331438
C       0.301255    0.785122   -0.059483
C       1.364059    1.833023   -0.104747
C       1.682126    2.787983    1.083015
C       2.333774    3.675452    0.027321
C       2.900414    2.684946   -1.011918
O       2.667431    1.358766   -0.538137
C       1.469808    3.084012   -1.080789
H       0.626993   -0.211587   -0.427796
H       0.764449    3.227635    1.477500
H       2.295452    2.362445    1.882734
H       2.692814    4.692020    0.121287
H       3.743885    2.870860   -1.662729
H       0.822752    3.502743   -1.838202
