18

C      -0.007840    1.518123    0.208088
C      -0.005684    0.038614    0.016499
C      -1.007357   -0.806803   -0.240500
C      -2.462419   -1.179573   -0.506931
C      -1.947683   -2.665221   -0.628579
N      -0.599672   -2.138181   -0.353810
C       0.753641   -2.310809   -0.181870
O       1.406274   -3.326809   -0.223239
C       1.236651   -0.848833    0.083056
H       0.628845    2.025538   -0.528662
H      -1.017696    1.927842    0.112262
H       0.374083    1.801682    1.197722
H      -3.151099   -1.001715    0.321405
H      -2.891791   -0.768284   -1.422619
H      -2.316903   -3.355777    0.133988
H      -2.051933   -3.119918   -1.617100
H       1.993685   -0.585916   -0.665803
H       1.738464   -0.814198    1.057773
