21

C      -0.074637    1.539601    0.374892
C      -0.068134    0.086132   -0.131246
C      -1.418848   -0.566695   -0.103808
C      -2.117795   -1.018729   -1.145805
C      -3.458408   -1.589703   -0.757286
C      -3.361696   -1.705228    0.794965
C      -2.190675   -0.759246    1.189142
C      -4.653964   -1.333222    1.478171
O      -5.301366   -2.050059    2.196319
H       0.929930    1.970262    0.326157
H      -0.740820    2.161894   -0.230955
H      -0.411708    1.601457    1.414420
H       0.326555    0.055700   -1.152817
H       0.627534   -0.496920    0.489108
H      -1.791005   -0.963181   -2.179091
H      -4.275620   -0.918697   -1.064242
H      -3.673329   -2.560047   -1.217248
H      -3.120033   -2.733230    1.074892
H      -1.581755   -1.184708    1.994973
H      -2.561397    0.205987    1.565539
H      -4.987803   -0.288797    1.258755
