19

C      -0.375219    1.436430    0.127054
C       0.107073    0.006149   -0.000051
O       1.305170   -0.106036   -0.808717
C       2.022297   -0.774929    0.245603
C       0.824035   -0.663482    1.207928
N       1.060615    0.193766    2.351364
C       0.129522    0.058868    3.468978
C       1.514592   -0.475115    3.568948
H       0.382160    2.060921    0.604437
H      -0.593038    1.836945   -0.868043
H      -1.294161    1.483020    0.721616
H      -0.688646   -0.627933   -0.416664
H       2.311867   -1.795692   -0.034380
H       2.910305   -0.216493    0.563890
H       0.385562   -1.631542    1.498449
H      -0.144026    0.983288    3.968695
H      -0.677435   -0.666663    3.376951
H       1.632796   -1.557397    3.543272
H       2.270743    0.052274    4.142772
