19

C       0.724562    1.327900   -0.083084
C      -0.075361    0.005117   -0.033787
O      -1.453173    0.296394    0.074712
C       0.159567   -0.847476   -1.310479
C       1.017421   -2.091695   -1.042000
C       2.085890   -1.783660   -0.004923
O       1.477324   -1.443903    1.257587
C       0.348738   -0.717159    1.258851
O      -0.285974   -0.584334    2.276365
H       1.801487    1.164026   -0.190879
H       0.373319    1.911506   -0.938484
H       0.550282    1.905305    0.829037
H      -1.640683    0.298335    1.026412
H      -0.821923   -1.128945   -1.696275
H       0.640133   -0.223971   -2.071492
H       0.399509   -2.910958   -0.656116
H       1.489175   -2.450419   -1.962192
H       2.714220   -2.649659    0.213469
H       2.738394   -0.962389   -0.326883
