15

C      -0.010009    1.470843    0.003944
N       0.007391    0.019239    0.004165
C       0.084130   -0.729937   -1.165614
O       0.142510   -0.255002   -2.272777
C       0.079374   -2.205447   -0.776229
C      -0.009320   -2.215104    0.756979
C      -0.050698   -0.745855    1.167374
O      -0.120688   -0.295827    2.284135
H       0.899663    1.859611   -0.460549
H      -0.869706    1.838451   -0.561917
H      -0.073434    1.798119    1.041850
H      -0.765852   -2.695663   -1.265963
H       0.987048   -2.674494   -1.164411
H      -0.904985   -2.710640    1.140185
H       0.847674   -2.689656    1.241722
