15

O       0.229209    0.314473   -0.746185
C       0.305254    1.486622   -0.531303
O       0.935821    1.994264    0.541899
C       1.039252    3.424169    0.649148
C       2.395445    3.907230    0.213249
C       2.661154    4.220698   -1.237784
C       2.559961    5.338884   -0.231953
H      -0.143501    2.269383   -1.175658
H       0.249042    3.902169    0.054194
H       0.853349    3.652141    1.702589
H       3.217134    3.473194    0.774697
H       3.635703    3.973668   -1.642499
H       1.845788    4.101618   -1.944162
H       1.676533    5.968627   -0.261456
H       3.464081    5.861793    0.057528
