16

C      -0.053008    1.577824    0.022317
C       1.412402    2.002822    0.076522
C       2.270594    0.981671   -0.036762
C       1.528025   -0.304027   -0.129016
N       0.690233   -0.629332    1.038246
C       0.051481    0.064994   -0.079115
C      -0.193036   -0.861879   -1.263045
O       0.636195   -0.447616   -2.357352
C       1.241740   -1.221485   -1.312541
H      -0.606486    1.906640    0.908833
H      -0.559067    2.000527   -0.853745
H       1.701458    3.038113    0.229498
H       3.350396    1.064565   -0.029406
H       0.436627   -1.615404    1.046704
H      -1.069788   -1.449866   -1.510738
H       1.720830   -2.148349   -1.605942
