18

N      -0.053625   -1.173766   -0.084016
C      -0.023033   -0.019043   -0.078596
C       0.003816    1.441571   -0.046584
C       1.435392    2.009607    0.010389
O       2.072943    1.593155   -1.179815
C       3.298423    2.267731   -1.424534
C       3.057670    3.756902   -1.678260
C       2.137401    4.307883   -0.621556
C       1.416629    3.510542    0.163272
H      -0.493452    1.832397   -0.940106
H      -0.561998    1.783560    0.826395
H       1.943795    1.560987    0.883744
H       3.979405    2.138941   -0.568377
H       3.746285    1.774841   -2.290833
H       4.013252    4.295841   -1.671495
H       2.625100    3.908986   -2.676280
H       2.086117    5.386582   -0.500187
H       0.789177    3.912721    0.954544
