19

C       0.036560    1.459094   -0.095310
C       0.118986   -0.035221   -0.096017
C      -0.950630   -0.927734    0.701191
C       0.540795   -0.992424    0.975522
C       0.536157   -2.117385   -0.100648
C      -0.983298   -2.351874    0.035056
C      -1.426661   -2.547635   -1.458876
C      -0.625322   -1.411346   -2.103594
C       0.317402   -1.052585   -1.210013
H       1.007198    1.908361   -0.331675
H      -0.688935    1.819212   -0.833401
H      -0.272017    1.830587    0.887747
H      -1.721628   -0.437404    1.285305
H       1.104955   -0.857427    1.888049
H       1.271096   -2.912235   -0.212605
H      -1.331045   -3.118260    0.736276
H      -1.198407   -3.578061   -1.768091
H      -2.493645   -2.390492   -1.658691
H      -1.111392   -0.709505   -2.774857
