18

C       0.058286    1.485901    0.015610
C       1.296618    0.657258   -0.075236
C       2.014675    0.445294    1.211556
C       1.224891   -0.202954    2.068944
C      -0.094528   -0.545025    1.428317
C      -0.569419   -2.021113    1.487399
O      -1.724685   -1.674144    2.276224
C      -1.406442   -0.273774    2.213129
N      -0.033840    0.019975    0.064205
H      -0.088721    2.051961    0.932685
H      -0.371172    1.929928   -0.878369
H       1.814429    0.541259   -1.023337
H       3.022592    0.793690    1.399443
H       1.456068   -0.448137    3.099080
H      -0.836838   -2.423050    0.503345
H       0.092512   -2.721059    2.011603
H      -1.288510    0.169474    3.209541
H      -2.147742    0.300954    1.643609
