16

C      -0.551538    1.415048    0.188521
C      -0.026252   -0.028500    0.031227
C       0.701746   -0.202186   -1.272564
C       2.003302   -0.054559   -1.529946
C       3.080736    0.388905   -0.630122
O       4.133851    0.790796   -1.040907
O       2.919031    0.354487    0.742936
C       1.902172   -0.228284    1.468076
N       0.686953   -0.422738    1.236317
H       0.280612    2.123716    0.222492
H      -1.200818    1.682390   -0.650198
H      -1.123045    1.497296    1.116449
H      -0.905467   -0.682756   -0.014035
H       0.059821   -0.457988   -2.113945
H       2.366480   -0.174021   -2.545086
H       2.316592   -0.508069    2.435116
