14

N       0.088757    1.426445    0.300246
C       0.011088    0.048635    0.090429
C      -1.112366   -0.739438   -0.054280
C      -2.568906   -0.399430   -0.036662
C      -3.200346   -0.423171   -1.362735
N      -3.687114   -0.455006   -2.409820
N      -0.595932   -1.995043   -0.169206
N       0.738154   -1.994897   -0.079135
N       1.112554   -0.752840    0.074268
H       1.055684    1.703511    0.423551
H      -0.317708    1.970173   -0.451581
H      -3.126612   -1.077161    0.621646
H      -2.680743    0.604264    0.388374
H      -1.078269   -2.866688   -0.324794
