17

C      -1.599767    0.613235    0.794552
N      -0.427285    0.053241    0.119049
C       0.788572   -0.184152    0.771180
C       0.891892    0.236768    2.229461
O       1.729533   -0.701314    0.211684
C      -0.637057   -0.275508   -1.231063
N      -1.816632   -0.096573   -1.706044
C       0.437830   -0.769616   -2.044705
C       1.162832   -1.170891   -2.917885
H      -1.342675    0.902806    1.808367
H      -1.962928    1.484321    0.245222
H      -2.411708   -0.118371    0.816268
H       0.174068   -0.294312    2.861718
H       1.901957   -0.010456    2.553825
H       0.726273    1.310369    2.360006
H      -1.828412   -0.358453   -2.689689
H       1.860612   -1.531562   -3.632957
