20

C      -0.180200    1.405246    0.086510
N       0.065473   -0.017598   -0.005319
C       0.350420   -0.697001   -1.167036
C       0.482044   -2.028519   -0.861258
C       0.273862   -2.168836    0.539836
C       0.353773   -3.442439    1.320278
O      -0.846867   -3.623531    2.079420
C       0.015589   -0.906494    1.047015
C      -0.280457   -0.468950    2.444121
H       0.495539    1.878863    0.806320
H      -0.011846    1.857505   -0.892281
H      -1.211150    1.616532    0.392204
H       0.427826   -0.168829   -2.104167
H       0.705015   -2.822660   -1.558247
H       0.504570   -4.279711    0.621823
H       1.223280   -3.432435    1.998593
H      -0.726350   -4.404828    2.629004
H       0.529110    0.132645    2.879400
H      -1.195678    0.133356    2.503108
H      -0.432408   -1.350556    3.067913
