16

O      -0.562498    1.216436   -0.727856
N      -0.316199   -0.157743   -0.619870
C      -1.122557   -0.715533    0.181585
C      -2.396395   -0.340167    0.904726
C      -2.818889   -1.850843    0.814535
C      -3.777297   -2.112155   -0.314078
O      -4.760147   -2.801270   -0.233393
C      -1.311387   -2.194666    0.426324
O      -1.023016   -3.108627   -0.588368
H       0.102360    1.497331   -1.366513
H      -2.241331   -0.006927    1.933923
H      -3.029348    0.389278    0.393231
H      -3.188757   -2.321182    1.725217
H      -3.515199   -1.599199   -1.269929
H      -0.794937   -2.527483    1.334902
H      -0.936506   -2.618302   -1.413611
