19

C       0.032855    1.359790   -0.404942
C       1.478928    1.493500    0.204196
C       1.395659    0.008378    0.660946
C       0.860837   -0.341342    2.074320
C      -0.585179   -0.474958    1.465294
C      -0.002896   -0.120914    0.071893
O       0.065028   -1.160382   -0.878479
C       1.453026   -1.327024   -1.151158
O       2.186162   -0.964236    0.014845
H      -0.728648    2.011564    0.029844
H      -0.005377    1.456369   -1.492344
H       2.262552    1.666136   -0.536994
H       1.591080    2.226015    1.007052
H       1.274788   -1.275059    2.457503
H       0.984010    0.439933    2.827654
H      -0.996035   -1.484871    1.501152
H      -1.326539    0.226474    1.854463
H       1.647725   -2.377841   -1.382746
H       1.752088   -0.690518   -2.001003
