17

C      -0.191234    1.478832    0.403563
C       0.030093    0.031187    0.010800
C       1.388665   -0.396235   -0.479737
C       0.906173   -0.831351    0.884516
C      -1.224318   -0.604064   -0.630585
C      -1.588191    0.087202   -1.880497
N      -1.864738    0.663181   -2.841999
C      -1.090585   -2.045797   -0.881084
N      -0.974696   -3.181932   -1.050187
H       0.717131    1.891510    0.849775
H      -0.449381    2.095864   -0.463229
H      -0.997300    1.573649    1.140874
H       1.446044   -1.155323   -1.252143
H       2.156474    0.366322   -0.544601
H       1.335443   -0.361296    1.762324
H       0.653934   -1.877491    1.014743
H      -2.066277   -0.477222    0.065088
