19

C      -0.038858    1.591694    0.090994
C      -0.050031    0.061761   -0.018809
O       0.673850   -0.538179    1.051460
C      -1.487634   -0.477084   -0.001382
O      -1.989290   -0.215551    1.308475
C       0.658583   -0.425202   -1.306985
O      -0.001733    0.022760   -2.458017
C       2.112539    0.007967   -1.333594
O       2.559819    0.619595   -2.276128
H       0.978842    1.953535    0.261942
H      -0.424217    2.041155   -0.828120
H      -0.664215    1.911879    0.927729
H       0.070324   -0.539352    1.805788
H      -2.089145    0.015073   -0.774871
H      -1.469519   -1.557604   -0.202652
H      -2.826418   -0.674693    1.415912
H       0.668694   -1.529162   -1.259851
H       0.678690    0.476941   -2.982619
H       2.728791   -0.273374   -0.462447
