18

C       0.114563    1.559649    0.039304
C       0.012130    0.029073    0.009935
C       0.601984   -0.546917   -1.298217
C       0.790230   -2.040723   -1.266019
C       1.071401   -2.693529   -0.137135
C       1.186217   -1.966303    1.150365
O       2.068561   -0.814714    1.186153
C       0.660664   -0.593227    1.231192
H       1.163696    1.873729    0.043561
H      -0.368660    2.003879   -0.836865
H      -0.364262    1.974489    0.932416
H      -1.050486   -0.251945    0.057746
H      -0.038905   -0.260671   -2.139302
H       1.574743   -0.070666   -1.480863
H       0.722278   -2.580865   -2.206396
H       1.219570   -3.768851   -0.127955
H       1.229848   -2.565910    2.057361
H       0.291512   -0.233190    2.193859
