18

C      -0.025856   -0.459203    1.424907
N      -0.068875    0.070804    0.067946
C      -0.276662    1.411571   -0.125245
O      -0.412447    2.236955    0.749279
C       0.079065   -0.816841   -1.043673
C       1.374390   -1.676398   -1.276659
C       0.493823   -2.878547   -1.724656
C      -0.706954   -2.154417   -1.090168
O      -1.755849   -2.507251   -0.639436
H      -0.789096   -1.231076    1.558076
H       0.957960   -0.884083    1.653977
H      -0.219202    0.371287    2.103305
H      -0.307430    1.666058   -1.203410
H      -0.147265   -0.261553   -1.962315
H       2.079943   -1.277268   -2.005272
H       1.900530   -1.883420   -0.343033
H       0.391140   -2.961217   -2.811027
H       0.719743   -3.865531   -1.317034
