13

O      -0.100448    1.281279    0.138505
C       0.042320   -0.035366   -0.016227
N       1.190626   -0.599024    0.144849
C       1.267945   -1.973686   -0.031678
O       2.277426   -2.622467    0.088367
N       0.058454   -2.623877   -0.375721
C      -1.177987   -2.035479   -0.551760
N      -2.295480   -2.557643   -0.858615
N      -1.116367   -0.654999   -0.345358
H       0.777158    1.620106    0.369500
H       0.136826   -3.622063   -0.499291
H      -2.223976   -3.564203   -0.984770
H      -1.975278   -0.136834   -0.452286
