20

C      -0.177471    0.749807   -2.042256
N       0.063502   -0.298792   -1.056779
C       1.359072   -0.382305   -0.370786
C       2.485516    0.594718   -0.627496
O       3.080506    0.424883   -1.907653
C       0.123035    0.032054    0.344674
C      -0.193262    1.352511    1.057550
O      -0.894138    0.636739    2.094732
C      -0.679081   -0.641833    1.452627
H       0.159358    1.752681   -1.743086
H       0.336408    0.486675   -2.969640
H      -1.252637    0.801419   -2.239457
H       1.699684   -1.412312   -0.238757
H       2.129592    1.628036   -0.605369
H       3.230978    0.495314    0.177752
H       3.395261   -0.483139   -1.969219
H       0.658467    1.919882    1.453747
H      -0.853805    2.038609    0.510292
H      -1.615834   -1.106333    1.119934
H      -0.133129   -1.339981    2.099389
