25

C       0.432704    2.192965   -0.807916
C       0.216993    0.684207   -0.670595
C       0.921561   -0.130140   -1.766048
O       2.319144    0.169165   -1.804287
C       0.649764   -1.636799   -1.624030
C       1.091013   -2.507384   -2.794584
C       2.588499   -2.666851   -2.995271
C       0.228816   -3.706926   -3.116545
C       0.215642   -2.501001   -4.026835
H       1.499658    2.429443   -0.817377
H       0.003346    2.567404   -1.743898
H      -0.036826    2.737818    0.016614
H       0.581023    0.341391    0.309608
H      -0.855456    0.453528   -0.692759
H       0.552096    0.201946   -2.745054
H       2.705255   -0.148111   -0.979733
H       1.127176   -1.993311   -0.697289
H      -0.429225   -1.768176   -1.474394
H       3.056699   -3.103384   -2.103557
H       2.798632   -3.336572   -3.835580
H       3.068878   -1.704961   -3.186391
H       0.721216   -4.607536   -3.468633
H      -0.649073   -3.894038   -2.506362
H      -0.672079   -1.876219   -4.027795
H       0.695022   -2.583946   -4.996446
