19

C       0.432348    1.564267   -0.072606
C      -0.041922    0.104919    0.019133
C       0.465365   -0.799531   -1.115635
C       1.769516   -1.398702   -0.561165
N       1.559961   -1.409380    0.888708
C       2.410833   -2.144211    1.708936
N       2.355160   -2.158088    2.975861
C       0.529211   -0.541906    1.288651
O       0.177005   -0.319566    2.416894
H       1.521796    1.627725   -0.171333
H      -0.013945    2.060051   -0.939967
H       0.144370    2.111614    0.828605
H      -1.131829    0.093683    0.098812
H      -0.252834   -1.602085   -1.307818
H       0.629357   -0.265870   -2.054670
H       1.956487   -2.410787   -0.931959
H       2.640580   -0.782591   -0.821608
H       3.130551   -2.713029    1.104847
H       3.076448   -2.779939    3.338926
