12

O       0.012505   -0.038975    0.002314
C       0.005000    1.145635    0.009082
O      -1.099395    1.941270    0.029330
C      -0.760869    3.350445    0.031949
C       0.732159    3.343680    0.010114
C       1.913476    4.030505   -0.003563
N       2.932005    3.103090   -0.023130
N       2.453223    1.896924   -0.023181
N       1.106504    2.043097   -0.002339
H      -1.212681    3.813993   -0.849754
H      -1.186701    3.804443    0.931374
H       2.117699    5.087719   -0.000891
