12

O       0.113705    1.277409   -0.042996
C       0.100300   -0.050373   -0.065619
N       0.065457   -0.709318   -1.197642
O       0.064216   -2.063533   -0.733945
C       0.098378   -1.995657    0.593835
O       0.106254   -3.104828    1.320477
C       0.076669   -4.341360    0.696434
N       0.085313   -5.350579    1.437368
N       0.122263   -0.797037    1.086758
H       0.140153    1.549082    0.883097
H       0.048866   -4.279939   -0.390821
H       0.061640   -6.200794    0.877288
