16

C      -0.162532    1.527045    0.054241
C      -0.026027    0.040300   -0.043413
C       0.249407   -0.611205   -1.175930
O       0.369002   -1.986647   -1.233563
C       0.208414   -2.750645   -0.114860
N       0.313512   -4.011252   -0.143521
C      -0.103282   -2.066056    1.191406
N      -0.272095   -2.676401    2.295483
N      -0.199561   -0.692375    1.123853
H       0.570033    1.946553    0.754330
H      -0.006193    1.992264   -0.920559
H      -1.159886    1.810183    0.411830
H       0.403225   -0.148585   -2.137532
H       0.525489   -4.338122   -1.086672
H      -0.160463   -3.677270    2.132069
H      -0.407114   -0.226915    1.994385
