19

C       0.177595    1.425621   -0.302758
C      -0.167318    0.019766    0.184663
O      -0.104956   -0.947426   -0.889028
C       1.126095   -1.685410   -0.866359
C       1.606376   -1.567826    0.552753
C       2.888843   -1.123729    1.285728
C       2.037266   -0.003789    1.989083
C       0.812430   -0.516475    1.199986
O       0.617456   -1.892122    1.531718
H       1.208843    1.481456   -0.666750
H      -0.487529    1.702716   -1.124156
H       0.057107    2.157665    0.502806
H      -1.203466   -0.007733    0.540489
H       0.893991   -2.703165   -1.195295
H       1.874422   -1.258409   -1.552035
H       3.345720   -1.881855    1.924621
H       3.643610   -0.712273    0.611880
H       1.939134   -0.060522    3.074840
H       2.350081    1.002329    1.704074
