19

C      -0.031100    1.514008   -0.122497
C      -0.033463    0.019193    0.073581
O       1.217872   -0.662586   -0.138386
C       0.670259   -0.669551    1.163877
C       1.318718   -0.123307    2.447283
O       1.260519    1.243039    2.769516
C       0.448460   -1.145838    3.238739
C       0.194750   -1.916864    1.907140
O      -1.118656   -2.311176    1.588567
H       0.827363    1.972351    0.370660
H       0.003036    1.751122   -1.191044
H      -0.950424    1.953845    0.281846
H      -0.886642   -0.511868   -0.349456
H       2.379834   -0.389000    2.478804
H       0.334349    1.506869    2.781934
H       0.917971   -1.677976    4.067352
H      -0.484070   -0.683797    3.578497
H       0.908036   -2.741632    1.773882
H      -1.285137   -3.172516    1.983145
