17

O       0.167473    1.038233   -0.392447
C      -0.022903   -0.311118   -0.089426
C      -0.036247   -0.740980    1.426587
N      -1.374902   -1.395654    1.238218
C      -1.472505   -0.782008   -0.103485
C      -2.645522    0.040521   -0.534886
C      -2.315951   -1.263595   -1.236137
C       1.043252   -1.602271    1.877729
N       1.906130   -2.302544    2.198890
H       1.100939    1.193505   -0.566726
H       0.639474   -0.963606   -0.672778
H      -0.122808    0.131367    2.082083
H      -1.260547   -2.404222    1.169255
H      -3.503818    0.054477    0.127491
H      -2.437924    0.970540   -1.051710
H      -1.900249   -1.227170   -2.238298
H      -2.964413   -2.113966   -1.050486
