18

C       0.346885    1.260129   -0.275871
N       0.068583   -0.155831   -0.120158
C      -1.249079   -0.567295    0.009133
N      -1.539396   -1.697052    0.655159
N      -2.884124   -1.816788    0.518605
C      -3.448580   -0.792771   -0.158809
C      -4.923690   -0.756003   -0.415110
O      -5.671166   -1.302103    0.666622
C      -2.414805    0.054410   -0.512337
H       1.428852    1.405717   -0.321153
H      -0.070512    1.623199   -1.220984
H      -0.056587    1.887494    0.535274
H       0.668073   -0.626815    0.542775
H      -3.369044   -2.578144    0.961086
H      -5.228465    0.272696   -0.653480
H      -5.185346   -1.376340   -1.280438
H      -5.495527   -0.758293    1.442382
H      -2.493097    0.973169   -1.069522
