17

O      -0.211539    0.045205   -0.072930
C      -0.016607    1.197008    0.212664
C       1.287982    1.939152    0.010883
O       2.399809    1.070854   -0.167794
C       2.988288    1.479513   -1.406494
C       2.131088    0.934308   -2.562322
C       0.938347    1.938116   -2.512132
C       1.347791    2.798271   -1.298555
O       2.770484    2.878576   -1.446993
H      -0.819259    1.831944    0.656391
H       1.450838    2.586540    0.885838
H       4.051737    1.246207   -1.397488
H       2.668863    0.977879   -3.512175
H       1.829362   -0.094866   -2.364871
H       0.900505    2.565098   -3.405110
H      -0.028381    1.447457   -2.393779
H       0.912888    3.793062   -1.223666
