12

C      -0.014567    1.399523    0.008365
O       0.004085   -0.030812    0.002805
C      -1.189742   -0.626675    0.009840
N      -2.326436    0.033991    0.021285
O      -3.315098   -0.955250    0.025214
C      -2.725006   -2.159010    0.015918
C      -1.376513   -2.041383    0.005845
H       1.030465    1.710029    0.001238
H      -0.533453    1.782954   -0.875427
H      -0.519311    1.776225    0.903176
H      -3.392778   -3.006970    0.017856
H      -0.624629   -2.811040   -0.003006
