20

C      -0.068630    1.415316    0.017278
O      -0.041697    0.014318    0.174831
C      -1.270497   -0.612654   -0.176252
C      -1.109093   -2.109654   -0.075593
C      -0.019302   -2.689943   -0.961595
O       1.286434   -2.392453   -0.503900
C      -1.351482   -2.764357    1.260847
C      -2.363342   -2.919580    0.154269
H       0.911206    1.798020    0.311356
H      -0.268385    1.703932   -1.026136
H      -0.837745    1.875827    0.655758
H      -2.074497   -0.259689    0.490111
H      -1.545970   -0.325453   -1.205854
H      -0.101388   -3.782564   -0.982844
H      -0.170712   -2.334883   -1.996735
H       1.279012   -1.454550   -0.272018
H      -0.731836   -3.615904    1.518583
H      -1.607802   -2.129681    2.102461
H      -3.307363   -2.391141    0.242391
H      -2.442067   -3.879569   -0.344711
