19

C      -0.215762    1.571472    0.157228
C      -0.091319    0.056514    0.101341
C      -1.407954   -0.633493   -0.252056
O      -1.808095   -0.352382   -1.583373
N       1.019021   -0.428551   -0.789684
C       1.849911   -0.725932    0.288900
N       3.081990   -0.914126    0.501128
C       0.713665   -0.581206    1.294190
O       0.995765    0.232754    2.398327
H       0.751931    2.043026    0.344154
H      -0.626863    1.944821   -0.785431
H      -0.889607    1.866937    0.966538
H      -1.308302   -1.716876   -0.089717
H      -2.209295   -0.267132    0.398502
H      -1.173670   -0.793606   -2.159021
H       1.343173    0.080812   -1.603514
H       3.644285   -0.837824   -0.348086
H       0.281913   -1.538957    1.614454
H       1.956758    0.240558    2.492780
