14

N      -0.136915    1.272187   -0.383719
C       0.010701   -0.000471    0.065805
O       1.055220   -0.501637    0.427216
C      -1.283665   -0.766986    0.080143
O      -2.518444   -0.133719   -0.374255
C      -2.965794   -1.467383   -0.001773
C      -1.663552   -2.184224   -0.480721
O      -1.448805   -2.877049    0.774167
C      -1.988114   -1.603864    1.208207
H       0.672060    1.869243   -0.434125
H      -1.038165    1.616131   -0.670206
H      -4.017326   -1.725722   -0.115074
H      -1.400288   -2.671329   -1.418108
H      -2.109105   -1.403052    2.271390
