15

C       0.001795    1.550034    0.027576
C       0.008611    0.047604    0.003618
C       0.070092   -0.699618   -1.191185
N       0.154565   -0.084303   -2.408135
N       0.087452   -2.043802   -1.201572
C       0.047461   -2.639819   -0.017372
N      -0.015326   -2.056628    1.180107
C      -0.032797   -0.737507    1.144148
F      -0.094659   -0.130659    2.327730
H       0.879479    1.959920   -0.486643
H      -0.888456    1.960493   -0.467471
H       0.006849    1.918903    1.053530
H      -0.146471    0.870712   -2.499067
H       0.011788   -0.682373   -3.206437
H       0.063880   -3.726987   -0.022778
