13

O       0.097246    1.367518    0.131129
C       0.067852    0.006842    0.040081
C       0.076142   -0.664610   -1.183436
C       0.044792   -2.056839   -1.209564
C       0.005222   -2.785449   -0.024380
C      -0.002774   -2.105922    1.193933
C       0.028223   -0.717301    1.233399
H       0.122631    1.740178   -0.756145
H       0.107030   -0.098783   -2.111264
H       0.051530   -2.570006   -2.165688
H      -0.019110   -3.868969   -0.047880
H      -0.033504   -2.662536    2.125004
H       0.022461   -0.175547    2.172329
