17

O       1.048632   -0.338432   -0.398820
C       0.633002    0.769744   -0.615507
C       1.228846    2.045076   -0.069216
C       1.531972    3.054615   -1.180930
C       1.746052    4.463174   -0.645582
O       1.433640    4.797682    0.474080
C       2.340130    5.476586   -1.585744
C       3.631496    5.226291   -2.259804
O       2.407315    5.142707   -2.973160
H      -0.264059    0.928642   -1.261647
H       0.499960    2.499930    0.614921
H       2.121281    1.802269    0.512838
H       2.388077    2.745841   -1.789700
H       0.695582    3.121071   -1.892905
H       2.070153    6.505206   -1.353485
H       4.263802    6.079098   -2.499300
H       4.153368    4.284071   -2.101411
