18

C       0.054707    1.472525   -0.305448
C       0.016189   -0.007768    0.021345
C       1.273655   -0.834896   -0.097732
C       0.708848   -0.504654    1.262809
N      -1.197939   -0.686861   -0.349617
C      -2.378248   -0.484919    0.329088
N      -3.477252   -1.131128   -0.232086
O      -2.455037    0.148419    1.365455
H       1.005524    1.917187    0.003414
H      -0.064223    1.642386   -1.381983
H      -0.753147    1.989091    0.220375
H       1.176517   -1.856915   -0.448179
H       2.176863   -0.331158   -0.424373
H       1.224898    0.226255    1.874898
H       0.221843   -1.296473    1.817316
H      -1.219923   -1.143281   -1.247459
H      -3.497588   -1.268426   -1.231280
H      -4.348982   -0.800959    0.152918
