21

C       0.390288    1.446983    0.257870
C      -0.324454    0.172980   -0.209181
C       0.331237   -0.437085   -1.423974
O       1.603149   -1.089245   -1.203273
C       0.500209   -1.880107   -1.612577
C       0.038352   -3.094341   -0.778213
C       0.070208   -3.931887   -2.069358
C      -0.822229   -3.318904   -3.107928
C       0.540749   -2.714522   -2.875776
H       1.433891    1.230392    0.504141
H       0.382324    2.214595   -0.523700
H      -0.091034    1.868047    1.145484
H      -0.335886   -0.566627    0.598810
H      -1.371516    0.396519   -0.452919
H       0.320818    0.188783   -2.320121
H       0.816808   -3.374547   -0.064497
H      -0.923393   -3.028672   -0.258369
H       0.412437   -4.956558   -2.136865
H      -0.924769   -3.879918   -4.031417
H      -1.719876   -2.778629   -2.814646
H       1.292895   -2.639722   -3.651080
