16

N      -0.261452    1.138581   -0.368358
C      -0.123495   -0.070034   -0.066922
O       0.967576   -0.776203    0.390755
C       0.171229   -1.993713    0.560156
C      -1.057627   -1.279369   -0.028022
O      -2.143011   -1.228128    0.850253
C      -3.212516   -0.418755    0.356709
C      -4.316536   -0.447666    1.303491
C      -5.243080   -0.452835    2.066996
H       0.601244    1.667434   -0.225743
H       0.590408   -2.822317   -0.013076
H       0.062307   -2.252092    1.615044
H      -1.358067   -1.624873   -1.028190
H      -2.864641    0.611559    0.202312
H      -3.546884   -0.800327   -0.622407
H      -6.059727   -0.457542    2.745959
