13

O      -0.019935    1.406403    0.083811
C      -0.067722    0.034358    0.046962
C      -1.346369   -0.814910    0.087625
C      -2.374724   -0.160100   -0.768031
N      -3.581463    0.126175   -0.646853
O      -1.500973    0.030103   -1.861988
C      -0.467614   -0.727463   -1.177933
C       0.262093   -1.707971   -1.905839
N       0.882420   -2.503204   -2.472415
H      -0.538881    1.750113   -0.655488
H       0.741614   -0.407520    0.620406
H      -1.499046   -1.627451    0.782783
H      -3.963462    0.569047   -1.483252
