19

C      -0.008643    1.519383   -0.011348
C       0.001688    0.063472   -0.038372
C       0.024138   -1.140319   -0.060951
C       0.017084   -2.598026   -0.083269
C      -1.402762   -3.187586    0.027630
C      -1.374595   -4.726321    0.022438
O      -0.602091   -5.231887    1.077241
C      -2.783569   -5.277018    0.091039
O      -3.131151   -6.027397    0.970901
H       0.324588    1.903627    0.959155
H       0.654636    1.936817   -0.777166
H      -1.013876    1.914886   -0.195216
H       0.485452   -2.959842   -1.009019
H       0.620964   -2.995492    0.740038
H      -1.868576   -2.841447    0.956601
H      -2.018818   -2.827398   -0.804705
H      -0.956567   -5.057363   -0.947727
H      -1.196600   -5.806885    1.584950
H      -3.480725   -4.949272   -0.706984
