17

C      -0.326142    1.539477   -0.016335
N       0.071291    0.140723    0.071091
C       1.348036   -0.405129   -0.325494
C       2.632930    0.439452   -0.348108
C       2.920896    0.823815    1.100709
O       1.952589    1.686104    1.707713
C       1.857784    0.278019    1.961710
C       0.865595   -0.489919    1.105443
H       0.492148    2.263102    0.001020
H      -0.898756    1.663571   -0.942477
H      -0.991787    1.768711    0.820777
H       1.301011   -1.243898   -1.018317
H       3.454849   -0.176419   -0.729473
H       2.563685    1.319720   -0.996922
H       3.944346    0.986550    1.432167
H       2.014312   -0.021433    2.994625
H       0.442224   -1.391245    1.543693
