19

O      -0.017603    0.000440   -0.290522
C       0.001518    1.136083    0.124065
C       1.216978    1.984232    0.122459
C       1.231610    3.481578   -0.150701
C      -0.005736    4.206905    0.407019
C       0.361137    3.656630    1.804041
C       0.334084    4.437183    3.083255
C      -0.533450    3.207671    2.922518
C       1.584811    2.964870    1.231700
H      -0.915987    1.602500    0.537897
H       2.076488    1.466574   -0.294513
H       1.888299    3.871342   -0.918396
H       0.105293    5.293084    0.353725
H      -0.978020    3.934535   -0.013770
H       1.195690    4.371877    3.740353
H      -0.148829    5.409286    3.077761
H      -1.603375    3.351661    2.808847
H      -0.260733    2.312191    3.471629
H       2.552412    2.890808    1.714768
