17

C      -0.142713    1.562416   -0.004267
C       0.031633    0.033232    0.019940
C       0.778715   -0.493732   -1.177720
C       2.077824   -0.899204   -1.168337
C       2.720428   -1.357808   -2.387361
O       3.881731   -1.738705   -2.479650
C       1.810789   -1.322627   -3.550607
N       0.573078   -0.936777   -3.537236
N       0.082505   -0.529900   -2.352808
H       0.829520    2.062595   -0.022748
H      -0.703172    1.891140   -0.885146
H      -0.685939    1.898598    0.883132
H       0.578464   -0.264033    0.918344
H      -0.951785   -0.451236    0.076805
H       2.650177   -0.882608   -0.248445
H       2.199936   -1.649103   -4.510530
H      -0.884046   -0.248112   -2.387537
