16

N       0.002379    1.467236    0.034700
C      -0.040724    0.035244   -0.032651
C       0.202976   -0.763801   -1.346127
O      -0.960163   -1.577933   -1.094018
C      -1.365598   -0.758583    0.022624
C      -1.330167   -1.520845    1.339871
O       0.041362   -1.489298    1.787086
C       0.762072   -0.552405    1.131971
O       1.877077   -0.243057    1.443003
H       0.935462    1.763258    0.307884
H      -0.217891    1.891088   -0.859870
H       0.083179   -0.142180   -2.244901
H       1.122813   -1.352422   -1.429841
H      -2.305169   -0.229402   -0.160465
H      -1.952826   -1.049345    2.107392
H      -1.623808   -2.565112    1.214467
