19

O      -0.029450    1.393191   -0.066103
C      -0.008033    0.013557    0.022624
C       0.184235   -0.677144    1.413958
C      -0.679092   -1.836311    0.850994
C      -1.334368   -0.798308   -0.102549
C       0.205527   -2.822263    0.073579
C       1.028913   -2.105408   -1.028671
C       1.020462   -0.586216   -0.918952
O       1.762259    0.134323   -1.552026
H       0.686284    1.623952   -0.682056
H       1.199427   -0.895814    1.759045
H      -0.344085   -0.095223    2.172857
H      -1.333264   -2.358580    1.550918
H      -2.139625   -0.246197    0.387516
H      -1.663708   -1.120210   -1.094940
H       0.879471   -3.324475    0.776272
H      -0.413413   -3.604829   -0.377340
H       2.069132   -2.440174   -1.066921
H       0.616982   -2.324493   -2.021703
