18

O      -0.123864    0.976402   -0.574783
C       0.079431   -0.315967    0.013215
C      -1.254797   -1.110561    0.134569
C      -1.373067   -1.866461   -1.177834
C      -1.141289   -1.128159   -2.446577
N      -0.058323   -1.929640   -1.848137
C       0.881364   -1.160960   -1.024059
C       0.768372   -0.173529    1.295861
C       1.322813   -0.034816    2.353833
H      -0.541000    1.536895    0.089042
H      -1.193202   -1.817052    0.967744
H      -2.090563   -0.432527    0.332732
H      -1.963326   -2.778723   -1.182000
H      -1.527577   -1.537965   -3.375612
H      -1.071924   -0.046786   -2.404835
H       1.506911   -0.504469   -1.633834
H       1.525724   -1.869610   -0.496763
H       1.820360    0.084448    3.284698
