21

C      -0.056163    1.539715    0.053919
C      -0.142604    0.032450   -0.198507
C       0.927448   -0.470795   -1.175632
C       0.844884   -1.967084   -1.417167
O      -0.416295   -2.429659   -2.021237
C       0.314504   -3.248521   -2.947448
C       1.040688   -2.358146   -3.887692
O       0.510782   -1.134404   -4.289385
C       1.652162   -2.644040   -2.521628
H       0.914457    1.815657    0.481262
H      -0.177620    2.104167   -0.877202
H      -0.833090    1.872779    0.749012
H      -0.047460   -0.507091    0.753298
H      -1.132736   -0.222568   -0.594407
H       0.861222    0.060988   -2.129493
H       1.928249   -0.260708   -0.772288
H       0.963945   -2.507114   -0.467569
H      -0.037935   -4.261293   -3.109425
H       1.565147   -2.858176   -4.697551
H      -0.296881   -1.018511   -3.770071
H       2.625577   -3.100849   -2.398640
