19

C      -0.019025    1.536804    0.011838
C      -0.003219   -0.000177    0.057960
C       0.715731   -0.491285    1.324251
C      -1.442993   -0.538610    0.015402
C       0.750674   -0.519717   -1.228697
C       2.124414   -0.004652   -1.318937
N       3.192841    0.429003   -1.380078
C       0.762902   -1.986953   -1.316220
N       0.741557   -3.139956   -1.375023
H       0.991808    1.953718    0.028382
H      -0.527370    1.905984   -0.885723
H      -0.557068    1.925063    0.881474
H       0.189680   -0.128726    2.212167
H       0.741211   -1.584150    1.371509
H       1.744678   -0.121808    1.368909
H      -1.971859   -0.199114   -0.882020
H      -1.468191   -1.631720    0.034354
H      -1.997412   -0.174452    0.885178
H       0.205133   -0.146257   -2.105436
