14

N       0.168550   -1.099795   -0.004915
C       0.032569    0.050123   -0.023786
C      -0.109366    1.469342   -0.039868
C      -1.230077    2.183537    0.613134
C      -1.288566    3.445032    0.162284
C      -0.102804    3.673213   -0.728607
O       1.086381    3.652058    0.193954
C       1.286221    2.322088   -0.139239
C       0.329610    2.273437   -1.257808
H      -1.830557    1.739994    1.396059
H      -1.936152    4.232407    0.521884
H      -0.062843    4.547015   -1.374316
H       2.225095    1.841166    0.101998
H       0.374957    1.895554   -2.270797
