20

C       0.282084    1.576869   -0.123679
C      -0.010801    0.090275    0.084672
O       0.438244   -0.660081   -1.046990
C       1.295746   -1.749485   -0.650946
C       0.605362   -3.077536   -1.000854
C       2.628948   -1.614927   -1.399234
C       1.440888   -1.558401    0.841946
C       0.703415   -0.536075    1.253908
H       1.359996    1.749478   -0.193925
H      -0.187225    1.924441   -1.048369
H      -0.115624    2.169412    0.707333
H      -1.102911   -0.036040    0.186601
H       0.424201   -3.133205   -2.078595
H       1.226542   -3.932211   -0.712302
H      -0.354403   -3.157315   -0.483467
H       3.108452   -0.663468   -1.155700
H       3.311631   -2.428716   -1.132773
H       2.457921   -1.650670   -2.479436
H       2.063890   -2.201352    1.451887
H       0.599219   -0.173016    2.269109
