21

C       0.299902    1.172676    0.200967
C       0.148446   -0.310805   -0.089259
O       0.556893   -1.163704    0.660707
C      -0.567227   -0.642752   -1.404230
O      -0.983441   -1.978032   -1.491217
C      -0.202853   -2.829676   -2.300284
C      -0.483931   -2.685258   -3.779871
C       1.175487   -3.206341   -1.814412
C       0.022010   -4.186385   -1.708850
H       0.615913    1.725576   -0.690249
H      -0.669113    1.585155    0.506498
H       1.017936    1.320234    1.008284
H      -1.450705    0.006406   -1.488521
H       0.107196   -0.353321   -2.224851
H      -0.222435   -1.685847   -4.147291
H       0.096288   -3.410007   -4.358109
H      -1.546849   -2.852196   -3.983104
H       1.945688   -3.389465   -2.556590
H       1.513010   -2.758941   -0.888407
H      -0.386110   -4.350180   -0.718762
H      -0.001498   -5.047303   -2.368039
