17

C      -0.090481    1.618059   -0.011357
C       0.062104    0.100740   -0.001489
C       0.715677   -0.621924   -1.203981
C       2.162501   -0.267769   -1.326104
C       1.758397   -1.279561   -0.270087
C       1.125581   -0.573719    0.874164
N       1.340287   -0.687710    2.117968
O       0.438014    0.113888    2.855943
H       0.850895    2.119636   -0.254202
H      -0.835738    1.925324   -0.752881
H      -0.413375    1.970043    0.971493
H      -0.901909   -0.363566    0.239683
H       0.168033   -1.093965   -2.009604
H       2.677718   -0.698153   -2.179152
H       2.532628    0.710539   -1.034479
H       2.150717   -2.287941   -0.260920
H       0.705972   -0.068637    3.762432
