19

C      -0.658973    1.510701    0.250562
C      -0.060519    0.134142    0.091654
C      -0.757439   -1.080765    0.681350
C       0.575458   -0.645281    1.226803
N       1.748811   -1.382909    0.779308
C       1.670773   -1.377590   -0.701787
C       0.815785   -0.137983   -1.123759
C       2.999764   -1.393628   -1.308269
N       4.050526   -1.384688   -1.789075
H       0.111257    2.288529    0.188625
H      -1.403633    1.719057   -0.526666
H      -1.160065    1.612307    1.218469
H      -1.624769   -0.887860    1.303804
H      -0.827681   -2.003365    0.113916
H       0.641349   -0.262280    2.238697
H       2.578107   -0.868920    1.063823
H       1.158286   -2.291359   -1.022501
H       0.259495   -0.340472   -2.043714
H       1.463900    0.725975   -1.308240
