15

O       0.008896    1.319161   -0.084680
C       0.072509   -0.089467    0.019277
C      -1.314381   -0.650233    0.275737
O      -2.178541   -0.400438   -0.905840
C      -2.425963   -1.729780   -1.088306
O      -3.062080   -2.258109   -1.938897
C      -1.610654   -2.157966    0.150300
C      -0.526096   -3.185013   -0.072544
O       0.646984   -2.998966    0.118543
H      -0.537713    1.526692   -0.851099
H       0.509237   -0.551484   -0.875415
H       0.725965   -0.324928    0.862855
H      -1.764248   -0.166248    1.145305
H      -2.287693   -2.545206    0.920748
H      -0.912595   -4.161397   -0.433980
