21

C      -0.883840    1.098700   -0.052575
C       0.006833   -0.143468   -0.087213
C       1.026168   -0.194991   -1.249778
O       1.495605    1.128583   -1.507414
C       2.153854   -1.133457   -0.747733
C       2.142739   -1.009231    0.767837
C       2.111872    0.389964    1.365802
C       0.835591   -0.390379    1.173484
O       0.156474   -0.882560    2.292470
H      -0.288117    2.009548    0.036798
H      -1.488646    1.181604   -0.961063
H      -1.572632    1.045258    0.797822
H      -0.634302   -1.029812   -0.188224
H       0.553861   -0.592906   -2.159114
H       2.178982    1.070315   -2.182123
H       1.931073   -2.168104   -1.035711
H       3.115248   -0.871631   -1.207230
H       2.574761   -1.801554    1.368266
H       2.460451    0.464839    2.390631
H       2.322911    1.243071    0.732365
H      -0.232394   -0.133075    2.755744
