19

O      -0.127840    1.437602    0.038065
C       0.017578    0.031611    0.132398
C      -1.357229   -0.584448   -0.110744
C      -1.366914   -2.110073   -0.008448
C      -1.185469   -2.760137    1.380434
O      -2.469838   -3.414666    1.295179
C      -2.778056   -2.773671    0.050210
C      -0.523796   -2.728424   -1.103089
O       0.354127   -3.536099   -0.941231
H       0.729256    1.842966    0.198791
H       0.739025   -0.348035   -0.609720
H       0.390375   -0.268886    1.124977
H      -2.063048   -0.166411    0.615243
H      -1.708574   -0.275522   -1.103935
H      -0.360327   -3.474783    1.451098
H      -1.143164   -2.052086    2.217566
H      -3.603190   -2.054144    0.138237
H      -3.015182   -3.494119   -0.743359
H      -0.797926   -2.376962   -2.126324
