15

O      -0.124420    1.408896    0.135312
C      -0.079658    0.037512    0.025778
C      -0.294934   -0.739915   -1.243956
C      -1.252078   -0.910574   -0.080351
C      -0.626224   -1.795958    1.045012
O       0.706056   -2.187156    0.679093
C       0.525453   -0.868642    1.154607
C      -1.330231   -2.515533    2.127253
O      -0.805067   -3.273303    2.903186
H       0.655194    1.776449   -0.297393
H      -0.705495   -0.134406   -2.046006
H       0.366499   -1.542230   -1.546252
H      -2.307355   -0.681022   -0.139453
H       1.071952   -0.548106    2.034946
H      -2.415593   -2.274726    2.182276
