13

N       0.170537    1.413943   -0.055205
C       0.069716    0.162174   -0.221226
O       1.147150   -0.567398   -0.729353
N       1.122669   -1.935102   -0.941772
C       0.031912   -2.556098   -0.647351
C      -1.146832   -1.927628   -0.118929
C      -1.135375   -0.595755    0.092413
C      -2.335536    0.106177    0.640473
O      -3.355015   -0.482144    0.914448
H       1.090909    1.755152   -0.333204
H       0.068783   -3.624585   -0.833569
H      -2.035758   -2.505541    0.109385
H      -2.219605    1.194593    0.774751
