15

N      -0.742671    1.139672    1.067594
C      -0.254023    0.063405    0.335116
C      -0.673987   -0.616114   -0.764237
C       0.228336   -1.729496   -0.928483
C       1.126899   -1.619268    0.078872
N       2.252970   -2.329187    0.478700
C       2.772000   -3.410912   -0.176205
O       2.321936   -3.887289   -1.194981
O       0.851551   -0.537301    0.871155
H      -0.020161    1.805613    1.318814
H      -1.489464    1.613696    0.577561
H      -1.514497   -0.363808   -1.390643
H       0.225893   -2.490429   -1.687999
H       2.693424   -2.022179    1.332576
H       3.664508   -3.804834    0.345220
