17

C      -0.003039    1.608166   -0.053665
C       0.070465    0.093143    0.028422
N       1.065607   -0.692028   -0.884859
C       2.272186    0.108661   -0.879715
N       2.947899    0.134157    0.198581
C       2.220077   -0.757277    1.088823
C       1.303325   -1.624261    0.287143
C       0.673504   -0.631835    1.219354
O       0.038520   -0.895507    2.414440
H       0.941587    2.088907    0.210303
H      -0.295897    1.932372   -1.057836
H      -0.771041    1.961364    0.643032
H      -0.909392   -0.339663   -0.189995
H       2.513573    0.700969   -1.755976
H       2.731190   -1.128134    1.968268
H       1.258142   -2.701636    0.189607
H       0.271949   -0.207429    3.047046
