20

O      -0.484198    1.363586   -0.365279
C      -0.119216    0.023303   -0.113152
C       0.492152   -0.223989    1.308120
C      -0.780178   -1.005434    1.688501
C      -1.370396   -0.761664    0.318222
N      -1.064800   -2.095631    0.780243
C      -0.055374   -2.931608    0.193802
C       0.006538   -4.352101    0.688335
C      -0.541597   -4.051609   -0.686171
H       0.318632    1.865753   -0.537416
H       0.438493   -0.399009   -0.961067
H       1.446478   -0.754470    1.384767
H       0.559002    0.726769    1.841823
H      -1.257732   -1.007580    2.662512
H      -2.380920   -0.514254    0.011389
H       0.894257   -2.475677   -0.082619
H       0.978250   -4.826120    0.770570
H      -0.705056   -4.627329    1.457888
H      -1.613867   -4.130057   -0.822090
H       0.050887   -4.317262   -1.554478
