15

O       0.060589    0.019502   -0.004109
C      -0.001423    1.216143   -0.000267
N      -1.103294    2.014846   -0.219232
C      -0.847259    3.395819    0.142931
C       0.678337    3.389578    0.105766
C       1.500542    4.269101   -0.785199
C       1.554114    4.419712    0.728602
O       1.077520    2.031564    0.224605
H      -2.010326    1.588786   -0.125552
H      -1.272706    4.099962   -0.578750
H      -1.231933    3.645594    1.142742
H       2.355766    3.812519   -1.269842
H       0.993445    5.032545   -1.365959
H       1.083734    5.285101    1.184227
H       2.444692    4.065474    1.234822
