19

C      -0.493148    1.516284   -0.076934
C       0.079802    0.109318   -0.068943
O       1.204837    0.043749   -0.991199
C       2.151290   -0.691980   -0.357432
N       3.274026   -0.910834   -1.103357
N       1.950929   -1.066887    0.848029
C       0.680669   -0.444603    1.258152
C       0.982497    0.574415    2.366695
O       1.642855   -0.063873    3.438601
H       0.242667    2.252302    0.255308
H      -0.816808    1.787080   -1.085701
H      -1.364231    1.571184    0.583251
H      -0.672238   -0.592161   -0.450418
H       3.140976   -0.920892   -2.102299
H       3.881252   -1.628802   -0.741561
H       0.021175   -1.207682    1.686992
H       1.590754    1.397349    1.955467
H       0.058901    1.007504    2.767192
H       2.317285   -0.617958    3.021884
