13

N      -0.599232   -2.985037    0.405375
C      -1.624070   -2.311229    0.083470
N      -1.600731   -0.930222    0.255087
C      -2.613857   -0.067167   -0.039778
C      -2.493366    1.319457    0.170493
N      -3.487672    2.120806   -0.124295
N      -4.619281    1.596158   -0.628803
N      -4.729696    0.309339   -0.823397
N      -3.752955   -0.545178   -0.541731
H      -0.752535   -3.975807    0.229002
H      -2.566807   -2.672369   -0.327807
H      -0.739653   -0.559646    0.635620
H      -1.590485    1.771070    0.576901
