19

O       0.265686    0.088415    0.231363
C       0.071109    1.236732   -0.005425
O      -1.103596    1.824684   -0.407828
C      -0.492452    3.155436   -0.420228
C       0.859714    2.553727    0.015555
C       1.452313    2.956426    1.353809
C       2.703418    2.191769    1.872149
C       3.253798    3.540675    2.409063
C       2.271544    4.276247    1.457211
H      -0.538481    3.592957   -1.419310
H      -0.979394    3.808277    0.308105
H       1.623839    2.579600   -0.768035
H       0.666963    2.944334    2.118944
H       2.538916    1.377025    2.579378
H       3.306316    1.811150    1.041764
H       2.992318    3.696830    3.459385
H       4.320506    3.738719    2.285294
H       2.746817    4.522708    0.501788
H       1.759193    5.166528    1.829868
