20

C       0.188245    1.336008    0.048775
C      -0.077151   -0.183900    0.013317
C       0.665536   -0.823177   -1.210349
C       1.905449   -1.427101   -0.599625
C       1.849047   -1.445281    0.730165
C       0.568327   -0.857441    1.259402
C      -1.595184   -0.418831   -0.017600
N      -2.210680   -0.080529   -1.190856
O      -2.226845   -0.841898    0.932184
H       1.266122    1.519286    0.106938
H      -0.194399    1.838710   -0.845151
H      -0.285105    1.794252    0.922653
H       0.057514   -1.596972   -1.699267
H       0.894863   -0.076868   -1.982906
H       2.713714   -1.824549   -1.203529
H       2.611533   -1.858370    1.381580
H       0.733662   -0.134819    2.067194
H      -0.097632   -1.623375    1.671666
H      -1.702206    0.200268   -2.010056
H      -3.202768   -0.233919   -1.264966
