13

N       0.042096    1.356348   -0.088630
C      -0.008054    0.010876   -0.019058
C      -1.143895   -0.736097    0.077977
O      -2.366381   -0.142855    0.083097
N      -1.109387   -2.092457    0.177015
N      -0.082866   -2.785143    0.185602
O       1.191245   -2.064432    0.073994
C       1.261649   -0.711763   -0.034740
N       2.356436   -0.070306   -0.150436
H       0.945789    1.761469   -0.279833
H      -0.797943    1.886008   -0.241311
H      -3.028130   -0.842152    0.154509
H       3.158999   -0.697943   -0.151705
