17

C      -0.127167    1.554203   -0.093776
C      -0.086659    0.025156   -0.095065
C       1.123148   -0.541967   -0.909553
O       1.855024   -0.811072    0.357159
C       0.667228   -0.631787    1.014032
N       0.094813   -1.172856    1.998687
C      -1.349852   -0.893349    1.716719
C      -1.450361   -0.647519    0.161921
H       0.873988    1.979385    0.026302
H      -0.544733    1.926433   -1.035614
H      -0.752146    1.930912    0.721406
H       0.945660   -1.484570   -1.433852
H       1.674439    0.164688   -1.532200
H      -1.939789   -1.757426    2.032134
H      -1.705882   -0.028581    2.291446
H      -2.311956   -0.039887   -0.127476
H      -1.522133   -1.613496   -0.348232
