17

C      -0.167018    1.523466    0.073737
C       0.127040    0.061938    0.033430
O      -0.748573   -0.850691    0.703336
C       0.661480   -0.918034    0.993554
C       1.290125   -1.783765   -0.093845
C       0.688858   -0.763240   -1.171006
N      -0.342582   -1.166819   -2.101932
C       1.761510   -0.060198   -1.875024
N       2.626122    0.494308   -2.405333
H       0.703933    2.099986   -0.250335
H      -1.000444    1.761119   -0.595341
H      -0.438815    1.825765    1.088082
H       0.957697   -0.791462    2.027798
H       2.381535   -1.792952   -0.082411
H       0.903216   -2.802889   -0.166500
H       0.013713   -1.834214   -2.778463
H      -1.083761   -1.616178   -1.572196
