16

C       0.098259    1.532746   -0.047620
C      -0.043593    0.011864   -0.064363
C      -1.450111   -0.511203    0.031999
N      -2.398632    0.351983    0.121026
O      -3.714385   -0.162402    0.210893
C      -3.891784   -1.489586    0.198372
N      -3.007744   -2.402948    0.113201
C      -1.675471   -1.975574    0.020187
N      -0.676449   -2.763118   -0.071237
H       1.154450    1.805221   -0.122368
H      -0.435865    1.993652   -0.882513
H      -0.303424    1.962058    0.873842
H       0.394222   -0.420591   -0.972312
H       0.523813   -0.451447    0.752066
H      -4.952054   -1.723041    0.274490
H      -1.012658   -3.729223   -0.064672
