25

C       0.065015    1.425302    0.059797
O      -0.085453    0.031472   -0.058210
C       0.625107   -0.560317   -1.144015
C       2.120141   -0.723942   -0.821521
C       2.339522   -1.688818    0.352267
C       1.681176   -3.048581    0.081636
C       0.192001   -2.890624   -0.255958
C      -0.031336   -1.923445   -1.433146
C      -1.513590   -1.778802   -1.789573
H       1.091707    1.724591    0.317717
H      -0.218433    1.943867   -0.869891
H      -0.600543    1.755299    0.861971
H       0.511264    0.084311   -2.032236
H       2.623186   -1.104704   -1.720503
H       2.570656    0.252036   -0.609366
H       3.411353   -1.812108    0.543114
H       1.902969   -1.249180    1.256917
H       2.194461   -3.538925   -0.757941
H       1.804536   -3.708872    0.947708
H      -0.249203   -3.865451   -0.495231
H      -0.344572   -2.507171    0.620521
H       0.496363   -2.331386   -2.307847
H      -2.068557   -1.338955   -0.956860
H      -1.650727   -1.131431   -2.663158
H      -1.956158   -2.752853   -2.022806
