12

N      -0.014022    1.184961    0.585865
C      -0.052621    0.052822    0.025139
O       1.123612   -0.515553   -0.494777
N       1.177738   -1.734576   -1.117614
C       0.065180   -2.391619   -1.225656
C      -1.218207   -1.925905   -0.735932
C      -1.262597   -0.732226   -0.127758
C       0.161464   -3.663200   -1.883304
N       0.174907   -4.695401   -2.404242
H       0.931566    1.569764    0.590519
H      -2.092517   -2.549276   -0.874586
H      -2.171440   -0.299504    0.270720
