17

C      -0.567965    0.735885   -0.524444
C      -0.356806   -0.630997    0.141061
C       0.737272   -0.651219    1.193767
C       0.541509    0.170799    2.458663
O       0.712701    1.557453    2.219789
C       1.690286   -1.771351    1.236560
O       2.080555   -0.513859    0.677916
H       0.352175    1.062920   -1.018477
H      -1.353732    0.672092   -1.283275
H      -0.844750    1.500600    0.203641
H      -1.289835   -0.968822    0.610748
H      -0.107896   -1.372390   -0.626307
H      -0.475570    0.044513    2.844627
H       1.239952   -0.182492    3.232091
H       1.570493    1.649137    1.787806
H       2.178825   -2.038754    2.172819
H       1.590642   -2.585734    0.520286
