15

C       0.005470    1.450477    0.065528
N      -0.035706    0.010554   -0.086987
C       0.606524   -0.682736   -1.047015
N       1.273116    0.013697   -2.000903
H       1.653773   -0.517040   -2.770434
H       1.010702    0.963685   -2.200082
C       0.616851   -2.086800   -1.041640
C       1.246477   -2.768222   -2.104678
N       1.785556   -3.245870   -3.016989
C      -0.006098   -2.766716    0.026471
N      -0.548089   -3.237280    0.940776
H       1.036297    1.822383    0.081203
H      -0.546578    1.967249   -0.730855
H      -0.464760    1.711084    1.014127
H      -0.501528   -0.540180    0.617989
