20

C       0.005747    1.569257    0.022496
C      -0.003834    0.027890    0.046027
C       0.694197   -0.457471    1.243382
N       1.233244   -0.833805    2.194311
C      -1.426487   -0.568045   -0.026493
C      -2.197223   -0.192980   -1.323423
C      -3.033545   -1.421613   -1.592109
C      -2.646184   -2.461132   -0.856129
C      -1.481204   -2.119747    0.039988
H       1.026302    1.956064    0.075806
H      -0.453223    1.932930   -0.899990
H      -0.555599    1.971956    0.870660
H       0.562374   -0.339844   -0.820859
H      -1.992792   -0.176865    0.826601
H      -2.794802    0.717394   -1.205510
H      -1.510221   -0.002743   -2.162893
H      -3.825380   -1.434554   -2.332646
H      -3.073185   -3.456667   -0.902110
H      -0.554111   -2.575486   -0.339482
H      -1.597122   -2.483797    1.065770
