19

C       0.025119    1.355410    0.094648
C       1.456088    1.894747   -0.005704
C       2.233813    1.091006   -1.053370
C       1.332330    0.446497   -2.172840
C       2.327885   -0.451633   -2.891647
C       3.032148   -1.008829   -1.896946
C       2.411889   -0.414035   -0.646307
C       0.876645   -0.546961   -1.019141
O      -0.027103   -0.058847   -0.068951
H      -0.433933    1.573889    1.062564
H      -0.596339    1.826597   -0.681294
H       1.419854    2.956831   -0.274001
H       1.975364    1.826921    0.958471
H       3.138116    1.602381   -1.395631
H       0.621605    1.023680   -2.764568
H       2.388724   -0.610442   -3.959002
H       3.822047   -1.745435   -1.936677
H       2.782776   -0.701210    0.338028
H       0.533216   -1.538942   -1.322239
