21

C       0.468099    0.205548   -0.903285
C       0.026227   -0.204318    0.500097
O      -0.193449    0.946789    1.317114
C      -1.236140   -1.068284    0.564092
O      -2.336453   -0.496724   -0.189219
C      -2.619651   -1.758814   -0.844288
C      -2.655085   -1.650779   -2.353932
C      -1.378146   -2.418269   -0.173127
O      -0.281335   -2.738668   -0.999360
H       1.311242    0.896845   -0.825529
H       0.764494   -0.664392   -1.490827
H      -0.351705    0.711414   -1.423063
H       0.831318   -0.758478    0.997326
H      -0.926338    1.430860    0.918182
H      -1.507400   -1.152476    1.624927
H      -3.566220   -2.171773   -0.467140
H      -1.683827   -1.347638   -2.750118
H      -2.931795   -2.612499   -2.801125
H      -3.405782   -0.913300   -2.653907
H      -1.620269   -3.257942    0.489099
H      -0.446669   -3.594630   -1.406372
