25

C      -0.073289    1.511485    0.085948
C      -0.046926    0.056358    0.018009
C      -0.018341   -1.147617   -0.029810
C      -0.027412   -2.612401   -0.081252
C      -1.481065   -3.122557    0.031728
C       0.770017   -3.166789   -1.316847
C       2.224236   -2.667783   -1.224280
C       0.780367   -4.706349   -1.280889
C       0.152041   -2.686159   -2.641370
H       0.439161    1.961239   -0.771828
H      -1.100637    1.892709    0.092449
H       0.420166    1.877869    0.993222
H       0.510168   -2.976634    0.807041
H      -2.080659   -2.811427   -0.827832
H      -1.516974   -4.212177    0.105596
H      -1.949867   -2.707631    0.927839
H       2.703015   -3.015910   -0.301677
H       2.814094   -3.043005   -2.067361
H       2.269949   -1.575656   -1.234222
H      -0.212731   -5.132273   -1.449330
H       1.439008   -5.097047   -2.063811
H       1.151678   -5.080838   -0.319848
H       0.112122   -1.593817   -2.682499
H       0.750467   -3.036457   -3.489197
H      -0.864451   -3.068024   -2.779062
