16

C      -0.050164    1.571523    0.061305
C      -0.023632    0.025375    0.026642
C       0.711201   -0.501009    1.190117
N       1.296789   -0.901659    2.102003
C      -1.394405   -0.574290   -0.064392
C      -1.992748   -1.388722   -0.973983
C      -3.335123   -1.590832   -0.512085
C      -3.443586   -0.884627    0.641773
O      -2.271471   -0.257107    0.928322
H       0.964888    1.971711    0.116357
H      -0.533444    1.946484   -0.844159
H      -0.612874    1.921139    0.928932
H       0.521443   -0.300729   -0.866585
H      -1.536262   -1.799553   -1.860938
H      -4.105775   -2.183651   -0.978446
H      -4.241001   -0.728109    1.348913
