12

N      -0.001180    1.340718    0.009647
C       1.268711    1.894251    0.000359
C       2.119668    0.809235   -0.013659
N       3.401418    0.343767   -0.028404
N       3.404952   -1.031391   -0.035869
N       2.196305   -1.471208   -0.026528
C       1.346870   -0.384588   -0.012573
C       0.006968   -0.027853    0.002244
H      -0.842912    1.892049    0.020681
H       1.416276    2.959410    0.004625
H       4.283432    0.824285   -0.034677
H      -0.904916   -0.599072    0.007994
