17

C       0.077396    1.528113    0.004464
O       1.204613    0.640972    0.002670
C      -0.107263    0.074546    0.017916
C      -0.520309   -0.740388    1.251030
C      -1.456122   -1.785097    0.652551
O      -2.593503   -1.070269    0.057608
C      -1.976272   -1.206383   -1.221361
C      -0.907798   -2.135902   -0.755406
C      -0.530505   -0.728868   -1.187395
H      -0.065352    2.100983    0.920005
H      -0.078768    2.086694   -0.918065
H       0.366320   -1.212173    1.690430
H      -1.016859   -0.140585    2.017802
H      -1.787412   -2.585816    1.313957
H      -2.609568   -1.185636   -2.100243
H      -0.519053   -3.072849   -1.127543
H      -0.029964   -0.564751   -2.134207
