18

C       0.023092    1.441049   -0.264565
C       0.035931   -0.030038    0.181626
O       0.576071   -0.151724    1.483155
C      -1.342538   -0.636520    0.092917
N      -2.025082   -0.809918    1.197249
O      -3.245727   -1.349516    0.821828
C      -3.251259   -1.485528   -0.513793
C      -2.083445   -1.056612   -1.059210
C      -1.667690   -1.044556   -2.496332
H       1.031707    1.852093   -0.173860
H      -0.305205    1.547104   -1.303818
H      -0.650166    2.020980    0.373725
H       0.699174   -0.591283   -0.491795
H      -0.163861   -0.217900    2.099456
H      -4.149790   -1.907429   -0.938216
H      -1.527189   -0.025096   -2.871961
H      -0.721226   -1.576267   -2.643534
H      -2.420867   -1.527000   -3.124530
