11

O       0.045820    1.323629    0.007249
C      -0.044949   -0.004237    0.001123
C      -1.222945   -0.688088    0.004230
N      -1.215977   -2.049366   -0.002621
C      -0.089898   -2.693511   -0.012063
C       1.217474   -2.059423   -0.016008
O       2.308995   -2.545212   -0.024720
O       1.131273   -0.628721   -0.008459
H       0.982081    1.567144    0.003301
H      -2.169892   -0.167260    0.012056
H      -0.093048   -3.778833   -0.017555
