21

C      -0.032545    1.493821    0.198999
C       1.511534    1.415371    0.009333
C       2.195977    1.052233    1.333714
C       1.304897    0.070057    2.131816
C       0.533873   -0.865245    1.178910
C       1.494338   -1.805363    0.430074
O       2.090237   -1.011303   -0.602723
C       1.248813    0.104177   -0.818363
C      -0.053788   -0.042476   -0.006375
H      -0.417887    1.908741    1.133710
H      -0.521383    2.002257   -0.636321
H       2.011069    2.242282   -0.500550
H       3.166776    0.596107    1.113999
H       2.387386    1.953942    1.925816
H       1.901657   -0.511896    2.842387
H       0.582193    0.634205    2.730624
H      -0.229688   -1.428252    1.723546
H       2.290870   -2.203200    1.068061
H       0.956124   -2.655076   -0.016900
H       1.143900    0.285109   -1.891233
H      -0.929830   -0.513399   -0.457551
