22

C      -0.197241    1.512556   -0.125799
C      -0.040062    0.021953    0.082121
C       1.275365   -0.656112   -0.110447
N       0.683072   -0.555173    1.219001
C       1.318055    0.297688    2.183331
C       0.704379    0.538936    3.532555
C      -0.043101   -0.706419    4.028909
C       1.269507   -1.539958    3.882461
C       1.999393   -0.283531    3.390447
H       0.737868    2.057226    0.025828
H      -0.532760    1.711173   -1.149252
H      -0.946666    1.929099    0.556063
H      -0.934861   -0.547744   -0.167711
H       1.340966   -1.655423   -0.534019
H       2.128701   -0.015236   -0.333451
H       1.843971    1.173756    1.796582
H       0.565560    1.544887    3.912793
H      -0.359538   -0.614643    5.070280
H      -0.894202   -1.025347    3.422426
H       1.645158   -1.891617    4.845839
H       1.238901   -2.375825    3.179769
H       3.018181   -0.010681    3.641784
