19

C       0.042123    1.508296    0.017911
C      -0.058767   -0.028273   -0.049903
C      -1.536670   -0.476075   -0.043035
O      -2.246739    0.009559    1.070144
C       0.760427   -0.626364   -1.206120
C       2.135542   -0.862996   -0.564208
O       1.877456   -1.078654    0.838179
C       0.649203   -0.625326    1.170613
O       0.216751   -0.712571    2.291918
H       1.080553    1.848879    0.079215
H      -0.407632    1.945293   -0.879637
H      -0.500366    1.881411    0.888020
H      -2.034931   -0.083903   -0.937607
H      -1.573906   -1.577104   -0.103017
H      -1.739545   -0.258870    1.851438
H       0.327383   -1.580482   -1.525994
H       0.818595    0.028464   -2.078210
H       2.654948   -1.745686   -0.941625
H       2.798467    0.003235   -0.663521
