21

C       0.070197    1.550002    0.057535
C      -0.004124    0.021988   -0.002420
C      -1.449313   -0.539420   -0.034955
C      -2.226285   -0.124406   -1.302591
C      -1.432747   -1.992853    0.102771
C      -1.407287   -3.199724    0.206710
C      -1.380099   -4.555122    0.320772
C      -1.355932   -5.761137    0.421918
C      -1.327123   -7.207858    0.542773
H       1.108987    1.879645    0.155710
H      -0.337690    2.019401   -0.842526
H      -0.483764    1.940951    0.918667
H       0.533716   -0.348742   -0.883322
H       0.505500   -0.402113    0.869280
H      -1.981651   -0.126590    0.835427
H      -3.231501   -0.553200   -1.296667
H      -2.320000    0.963116   -1.363607
H      -1.712389   -0.479579   -2.201275
H      -2.340466   -7.624145    0.577182
H      -0.808370   -7.667509   -0.306333
H      -0.808959   -7.520241    1.456697
