19

O      -0.652262    0.674382    0.628914
C       0.133173    0.924808   -0.244318
C       1.336500    1.849346   -0.067031
O       2.465386    1.041841   -0.262482
C       3.666245    1.409168    0.416238
C       3.973479    2.914590    0.423673
C       3.548889    3.659371   -0.852533
C       2.047952    3.967639   -0.905401
O       1.211962    2.827081   -1.060509
H       0.059758    0.495273   -1.265524
H       1.314055    2.288384    0.942708
H       3.646714    1.027233    1.447044
H       4.451587    0.867057   -0.119555
H       3.495641    3.394391    1.286761
H       5.052466    3.023207    0.582852
H       4.074529    4.620990   -0.895138
H       3.836891    3.095057   -1.746626
H       1.756612    4.518706    0.004034
H       1.821930    4.603239   -1.766051
