19

O      -0.062655    0.135618   -0.687576
C      -0.046077    1.225187   -0.195301
C      -1.142912    2.137565    0.443662
C      -0.035317    3.194209    0.698223
C       0.744061    3.191836    2.045161
C       1.834928    2.256155    1.405678
C       1.040087    2.285336    0.065220
C       1.339161    3.360791   -1.022624
C       0.251221    4.290021   -0.368907
H      -1.938649    2.425425   -0.251757
H      -1.615311    1.704918    1.332100
H       1.111956    4.172467    2.358723
H       0.201713    2.752711    2.887045
H       2.835014    2.692347    1.336862
H       1.930448    1.268501    1.863247
H       2.359876    3.751017   -0.990457
H       1.131714    3.048125   -2.048860
H      -0.595549    4.529251   -1.018130
H       0.637925    5.228792    0.036648
