18

O      -0.097820    1.367924    0.057480
C      -0.023449   -0.032112    0.077891
C      -0.613790   -0.789322    1.251735
C      -1.357234   -0.707323   -0.073522
O      -2.469239    0.135168   -0.138518
C      -1.519756   -1.930344   -0.942487
C      -2.755118   -2.751715   -0.514999
C      -2.951594   -3.938414   -1.342478
N      -3.088287   -4.875321   -2.005231
H       0.386812    1.716711    0.812522
H       0.846467   -0.448329   -0.427739
H      -0.139117   -1.718994    1.548709
H      -1.024469   -0.197582    2.063211
H      -2.123397    1.039365   -0.137986
H      -1.636576   -1.620755   -1.986359
H      -0.622153   -2.553511   -0.882011
H      -2.656449   -3.064865    0.530659
H      -3.647081   -2.120459   -0.574730
