22

C       0.019080    1.576854    0.008432
C       0.020252    0.046473   -0.015708
C       0.716867   -0.501926   -1.274381
C       0.942055   -1.990427   -1.208608
C       0.866167   -2.688495   -0.074268
C       0.599897   -2.063075    1.243771
C      -0.300181   -2.790075    2.190794
N       1.141135   -2.711649    2.459406
C       0.676567   -0.546516    1.241081
H       1.041728    1.968565    0.064816
H      -0.445375    1.989030   -0.894053
H      -0.531762    1.960362    0.873694
H      -1.022779   -0.300053   -0.041577
H       0.124824   -0.256481   -2.165749
H       1.680873    0.012044   -1.416467
H       1.166119   -2.503068   -2.140755
H       1.006810   -3.768541   -0.081586
H      -0.925785   -2.222418    2.875521
H      -0.726010   -3.737661    1.869524
H       1.589954   -3.591846    2.213916
H       1.734313   -0.251310    1.270813
H       0.214700   -0.146188    2.149585
