18

C      -0.299890    1.428171   -0.374402
C      -0.078312   -0.076828   -0.184630
C       0.867682   -0.669976   -1.207958
C       0.872183   -2.141688   -1.497639
N       0.417140   -1.181057   -2.492627
C      -0.896467   -1.102031   -2.967896
N      -1.355155   -2.297045   -3.484895
O      -1.559594   -0.084360   -2.966216
H       0.649472    1.973750   -0.328418
H      -0.765909    1.617607   -1.343053
H      -0.948858    1.826563    0.411459
H       0.347600   -0.270672    0.808868
H      -1.037308   -0.604229   -0.225358
H       1.825831   -0.154894   -1.278675
H       1.800473   -2.662093   -1.721318
H       0.114246   -2.745548   -1.002575
H      -0.674080   -2.984173   -3.766777
H      -2.161261   -2.206622   -4.083408
