16

C      -0.035953    1.425068    0.000688
N      -0.155267   -0.021495    0.067875
C       0.589510   -0.673732    1.045557
C       1.262591   -0.178702    2.121493
O       1.781875   -1.194641    2.849261
N       1.463004   -2.393074    2.238842
C       0.754494   -2.091916    1.176759
C       0.222683   -3.155518    0.273628
H       1.002102    1.775396   -0.121069
H      -0.632565    1.798559   -0.834411
H      -0.434085    1.866416    0.921054
H      -0.082818   -0.465425   -0.837215
H       1.444545    0.814032    2.497742
H      -0.866283   -3.080519    0.181208
H       0.643887   -3.071151   -0.735550
H       0.476163   -4.141277    0.667605
