21

C      -0.201592    1.493481    0.000174
C       0.054649   -0.020236   -0.006329
C       0.826677   -0.426594   -1.239945
C       1.348962   -1.636646   -1.496072
C       1.294727   -2.839956   -0.671255
C       0.976916   -2.972907    0.626361
C       0.615267   -1.932121    1.646752
C       0.796105   -0.451669    1.288070
O       2.165304   -0.076101    1.252038
H       0.743592    2.034596    0.110364
H      -0.678622    1.819582   -0.929515
H      -0.853340    1.779570    0.831342
H      -0.914225   -0.540668   -0.018082
H       0.973708    0.352365   -1.985057
H       1.855464   -1.764926   -2.450598
H       1.564388   -3.752628   -1.198866
H       0.996729   -3.985142    1.027431
H      -0.426122   -2.099088    1.960673
H       1.216827   -2.115228    2.547993
H       0.377401    0.126452    2.120303
H       2.536809   -0.444288    0.440450
