17

C      -0.023351    1.524796    0.065192
C      -0.009977    0.038869   -0.027224
C      -0.025792   -0.780982   -1.090506
C      -0.000499   -2.235322   -0.654069
C       0.032248   -2.090484    0.840130
N       0.064570   -2.847038    1.908612
C       0.079207   -1.947876    2.960622
C       0.055453   -0.645873    2.516480
N       0.025252   -0.753827    1.144539
H       0.867872    1.897260    0.583803
H      -0.051559    1.967906   -0.932097
H      -0.896678    1.878777    0.625508
H      -0.052836   -0.456602   -2.120324
H      -0.881965   -2.789861   -0.998680
H       0.875712   -2.771365   -1.039000
H       0.106181   -2.289623    3.984402
H       0.057411    0.299278    3.031951
