18

C      -0.196160    1.537287    0.057407
C       1.312205    1.533525   -0.302959
N       1.425639    0.211617    0.337317
C      -0.033045    0.026662    0.365574
C       2.301544   -0.767959   -0.106737
C       2.138214   -2.143389   -0.068592
N       3.284789   -2.670516   -0.585551
N       4.174542   -1.745148   -0.962567
C       3.588152   -0.583864   -0.675016
H      -0.426146    2.134058    0.941400
H      -0.886721    1.798414   -0.744255
H       1.499068    1.505263   -1.386973
H       1.939761    2.312828    0.142296
H      -0.430227   -0.342154    1.317727
H      -0.397988   -0.623680   -0.445011
H       1.329968   -2.762248    0.284201
H       3.508908   -3.642407   -0.708614
H       4.100086    0.344828   -0.878113
