15

C      -0.003622    1.495843   -0.001372
C       0.027739    0.042125    0.039163
C       0.061395   -1.159729    0.084837
C       0.091114   -2.616966    0.115316
O       0.534919   -3.111117    1.390793
C      -0.415106   -3.948319    1.930003
O      -0.267258   -4.491937    2.985797
C      -1.549395   -4.012734    0.974005
C      -1.270813   -3.250427   -0.077713
H       0.589362    1.882375   -0.837027
H      -1.027073    1.869299   -0.112984
H       0.406838    1.917871    0.922146
H       0.797721   -2.989569   -0.640482
H      -2.429767   -4.606271    1.170840
H      -1.872112   -3.058922   -0.955877
