25

C       0.074544    1.591298   -0.037112
C      -0.054784    0.060817    0.017098
C      -1.515633   -0.357319    0.055776
C      -1.956732   -1.621880    0.749383
C      -2.306170   -0.276531    1.337349
C       0.685046   -0.590614   -1.152354
C       2.227887   -0.419841   -1.272000
C       2.309520   -1.881381   -1.788292
C       0.904236   -2.130812   -1.179297
H       1.123452    1.904373   -0.031660
H      -0.386031    1.988964   -0.949531
H      -0.424477    2.058907    0.817127
H       0.417528   -0.289133    0.948314
H      -2.066007   -0.102533   -0.848443
H      -2.748170   -2.212325    0.300724
H      -1.201023   -2.211001    1.257929
H      -1.779815    0.032111    2.235277
H      -3.337514    0.056016    1.294024
H       0.212855   -0.275221   -2.092554
H       2.611857    0.375522   -1.915792
H       2.689249   -0.318154   -0.283184
H       2.290386   -1.924444   -2.881322
H       3.136393   -2.501234   -1.433401
H       0.976682   -2.537933   -0.165390
H       0.196641   -2.741236   -1.745241
