15

O       1.719243    3.987484    0.923095
C       0.919312    3.106108    0.703984
N       1.207904    1.828608    0.302701
C       2.462702    1.247718    0.055697
C       2.497671   -0.094097   -0.348285
N       3.612775   -0.763393   -0.613753
C       4.770864   -0.107775   -0.484798
C       4.845068    1.223876   -0.090166
C       3.677998    1.926094    0.188148
H      -0.174270    3.245000    0.809473
H       0.411601    1.222806    0.166812
H       1.562931   -0.645249   -0.458903
H       5.671794   -0.673194   -0.706665
H       5.808691    1.713147    0.000282
H       3.688620    2.960652    0.497547
