18

O       0.628021    2.556227   -1.962545
C       0.264485    1.904970   -1.008381
C       1.123403    0.797902   -0.414604
C       2.025111    1.379675    0.667618
C       3.459673    1.002521    0.715867
N       3.058597    2.357219    0.301206
C      -1.043801    2.226459   -0.340202
C      -2.041807    1.166741   -0.083690
O      -1.263971    1.705047    0.973653
H       0.513076   -0.000686    0.017331
H       1.728830    0.388493   -1.228567
H       1.511217    1.613690    1.596353
H       3.979971    0.949860    1.668037
H       3.823237    0.307749   -0.037483
H       3.098695    2.447866   -0.712132
H      -1.398210    3.240263   -0.516126
H      -3.095804    1.438056   -0.083310
H      -1.821839    0.136154   -0.357669
