16

N      -0.125290    1.320864   -0.461871
C      -0.003178    0.142550   -0.021293
C      -1.221795   -0.754291    0.067276
C      -1.613218   -1.267198    1.451837
O      -2.641842   -0.977316    1.990660
O      -0.759104   -2.123869    2.069100
C       0.496239   -2.449594    1.469150
C       1.434299   -1.258749    1.361231
O       1.228108   -0.395007    0.243176
H       0.789315    1.777184   -0.491419
H      -2.068651   -0.179421   -0.299219
H      -1.067316   -1.615275   -0.595302
H       0.941154   -3.179936    2.149395
H       0.359404   -2.934477    0.495308
H       1.382753   -0.681096    2.293837
H       2.458081   -1.622778    1.238977
