20

C       0.020056    1.596538    0.131366
C       1.554068    1.504153    0.128130
C       1.519724    0.011874   -0.128448
C      -0.018429    0.033413   -0.040157
O      -0.798318   -0.605298   -1.017255
C      -0.768699   -0.065823   -2.326751
C       0.620776    0.043209   -2.961455
C       1.496203    1.179022   -2.419932
N       2.074180    0.935023   -1.091516
H      -0.405395    1.913835    1.085208
H      -0.418589    2.207185   -0.661441
H       2.222895    2.071407    0.766207
H       2.155475   -0.781249    0.253144
H      -0.328812   -0.423902    0.903820
H      -1.391764   -0.743953   -2.918413
H      -1.257433    0.922153   -2.347178
H       1.147195   -0.912775   -2.853429
H       0.480054    0.207591   -4.037699
H       2.336995    1.332559   -3.106927
H       0.925131    2.117857   -2.421412
