20

C       0.209886    1.639000   -0.442445
C       0.259163    0.144169   -0.206378
C       1.507309   -0.673410   -0.292570
O       2.635491    0.032904    0.231664
C       2.074213   -0.048832    1.591012
C       2.838947   -1.118102    2.368189
C       2.100218    1.283320    2.326530
C       0.760714   -0.606396    1.022914
H       1.199729    2.084283   -0.326547
H      -0.126218    1.841533   -1.465132
H      -0.484369    2.141770    0.239307
H      -0.592295   -0.394403   -0.622300
H       1.700832   -1.481963   -0.989181
H       3.875236   -0.802670    2.523435
H       2.379522   -1.285313    3.348816
H       2.843028   -2.064719    1.821741
H       1.526052    2.054195    1.814152
H       1.686782    1.160630    3.333189
H       3.133381    1.632606    2.428914
H       0.159469   -1.358398    1.518898
