19

C       0.014201    1.511544    0.047130
C      -0.042171    0.055585    0.042284
C      -0.073851   -1.151224    0.035903
C      -0.088953   -2.592194    0.027800
C      -0.449680   -3.435942    1.234975
C      -1.519750   -2.730989    2.071639
C      -2.479556   -2.788597    0.824130
O      -3.104964   -1.628581    0.351776
C      -1.352958   -3.434357    0.003806
H       1.032053    1.866633    0.242643
H      -0.304675    1.928879   -0.914364
H      -0.635874    1.931018    0.822656
H       0.702877   -3.034303   -0.572756
H       0.218259   -4.215138    1.580414
H      -1.887357   -3.321268    2.913355
H      -1.258796   -1.728542    2.422115
H      -3.280156   -3.511156    1.003216
H      -2.407283   -0.995566    0.138635
H      -1.482115   -4.191151   -0.761556
