17

C      -0.013105    1.556127   -0.068582
C       1.459876    1.899794   -0.000824
C       2.393659    1.034300   -0.765345
C       1.877122   -0.194371   -1.472384
C       1.619319   -1.252561   -0.472368
C       1.330954   -0.365175    0.761028
C       0.019513    0.041306    0.024564
N       0.472007   -0.647500   -1.240517
N       2.230196    0.825224    0.697382
H      -0.546918    1.996961    0.780439
H      -0.493705    1.896571   -0.991799
H       1.754379    2.916772    0.243297
H       3.353631    1.422760   -1.096218
H       2.239405   -0.431555   -2.465823
H       1.880527   -2.302386   -0.530447
H       1.296515   -0.796010    1.759600
H      -0.900520   -0.431489    0.369640
