14

O      -0.260584    1.348291    0.056217
C       0.021788    0.023163    0.005430
C       0.082640   -1.050319   -1.036246
N       1.321789   -1.609409   -0.477962
C       0.954657   -0.957523    0.815200
C      -0.387483   -1.607182    1.272908
O      -0.812641   -1.995259    2.327881
C      -1.040408   -1.158265    0.005790
O      -2.348879   -1.143187   -0.365360
H       0.471724    1.840030   -0.336189
H      -0.156332   -1.026443   -2.093215
H       1.306373   -2.630959   -0.411520
H       1.739500   -0.714647    1.526907
H      -2.878577   -0.895337    0.403132
