11

O      -0.065306    1.289645    0.176450
C       0.013337   -0.023944    0.041695
N       1.151188   -0.611232   -0.088374
C       1.101927   -1.983776   -0.220837
N       0.073460   -2.754257   -0.231823
O      -1.165379   -2.104705   -0.089200
C      -1.275363   -0.743636    0.052226
N      -2.387595   -0.156326    0.180677
H       0.843669    1.628999    0.152409
H       2.050881   -2.498047   -0.331739
H      -3.155927   -0.830554    0.162732
