17

N       0.468776    0.365648    1.528548
C      -0.020360   -0.129404    0.478177
O      -0.985245   -1.070405    0.571303
C      -1.477944   -1.604956   -0.655687
C      -2.626319   -2.537335   -0.330204
C      -2.594490   -3.365964    0.916931
N      -3.531824   -2.252300    0.803924
C      -3.321061   -3.098691   -1.522213
O      -2.925626   -2.959163   -2.653920
H       1.175480    1.059149    1.293133
H       0.248858    0.120121   -0.556522
H      -1.829452   -0.799043   -1.312241
H      -0.689569   -2.151232   -1.186803
H      -3.045397   -4.354605    0.917901
H      -1.716286   -3.247793    1.543773
H      -3.154843   -1.451135    1.307770
H      -4.247121   -3.662049   -1.279145
