21

C       0.110107    1.220671   -0.444470
C       1.504066    1.590977    0.135555
C       1.512905    0.248352    0.923321
C      -0.008388    0.100573    0.626866
C       2.359845   -0.822181    0.272417
O       3.742203   -0.503567    0.379627
C       4.455751   -1.708395    0.638403
C       3.361951   -2.792925    0.646289
O       2.184424   -2.056778    0.929499
H      -0.655073    2.000344   -0.434972
H       0.173483    0.821275   -1.460485
H       2.322220    1.746481   -0.571573
H       1.462295    2.452354    0.806485
H       1.802984    0.302644    1.975303
H      -0.617933    0.402095    1.482115
H      -0.346903   -0.883865    0.294763
H       2.104899   -0.935539   -0.800520
H       5.210589   -1.881529   -0.137722
H       4.961966   -1.626657    1.607926
H       3.288253   -3.289495   -0.333469
H       3.495232   -3.552259    1.419644
