21

C       0.282506    1.581615    0.205160
C       0.039026    0.088898    0.016334
C       0.252347   -0.357967   -1.442430
C       0.557043   -1.855472   -1.590014
C      -0.369624   -2.780619   -0.778285
C      -0.008689   -2.948908    0.694098
O      -0.061316   -4.030703    1.233140
C       0.371049   -1.726136    1.545931
O       0.926319   -0.614350    0.887055
H       1.332611    1.815846    0.004585
H      -0.338079    2.165110   -0.482440
H       0.051965    1.887953    1.228987
H      -0.995980   -0.139616    0.314940
H      -0.645139   -0.096059   -2.017563
H       1.079230    0.215112   -1.878661
H       0.479850   -2.126809   -2.648165
H       1.595449   -2.044837   -1.300088
H      -1.403359   -2.406092   -0.824284
H      -0.388117   -3.790737   -1.195688
H      -0.540853   -1.442086    2.102594
H       1.103653   -2.064568    2.283100
