19

C      -0.016695    1.537955    0.049528
C       0.024463    0.033668   -0.006045
C       0.578203   -0.871914   -1.148140
C       1.583350   -1.514862   -0.174543
C       0.849131   -0.814563    1.013875
O      -0.037715   -1.639545    1.752307
C      -1.344940   -1.617655    1.175552
C      -1.244231   -0.836366   -0.125723
O      -0.664636   -1.610046   -1.205348
H       0.991295    1.965968    0.023194
H      -0.577532    1.954229   -0.794176
H      -0.495586    1.883238    0.973561
H       0.904263   -0.536428   -2.135222
H       1.615342   -2.605891   -0.154008
H       2.593964   -1.115884   -0.310749
H       1.491362   -0.281011    1.719547
H      -1.686555   -2.643589    0.996435
H      -2.046257   -1.130450    1.868876
H      -2.183803   -0.362844   -0.430369
