21

C      -0.288362    1.602425   -0.088355
C       0.045323    0.102376    0.012321
C       0.774447   -0.430900   -1.188264
C       2.040948   -0.876589   -1.256059
C       3.057532   -0.959293   -0.159319
C       2.407283   -1.339010   -2.646246
C       1.129364   -1.120995   -3.461798
O       0.978859   -1.377079   -4.627688
C       0.075762   -0.519132   -2.526346
H       0.623886    2.200406   -0.178658
H      -0.916004    1.817820   -0.958740
H      -0.829027    1.939231    0.801362
H       0.627484   -0.075503    0.921580
H      -0.892707   -0.457480    0.135227
H       3.407721   -1.991373   -0.027683
H       3.945691   -0.362215   -0.404243
H       2.675140   -0.609027    0.801632
H       3.237992   -0.773009   -3.090706
H       2.709217   -2.394728   -2.690781
H      -0.820335   -1.155159   -2.509109
H      -0.255501    0.450980   -2.920363
