11

C       0.044686    1.448700    0.008202
C       0.003037   -0.001677   -0.009301
C      -0.054299   -1.208663   -0.023130
C      -0.075008   -2.649027   -0.038304
O      -1.075689   -3.325947   -0.076614
C       1.330428   -3.302457   -0.000643
O       1.480017   -4.490659   -0.008118
H       1.069075    1.822340   -0.085594
H      -0.549825    1.862163   -0.813450
H      -0.374067    1.831715    0.945279
H       2.178462   -2.583995    0.033538
