19

C       0.053219    1.609380    0.022402
C       0.118441    0.078938    0.026995
C       0.725438   -0.534514   -1.232813
C       2.137272   -0.228819   -1.693146
C       1.808504   -1.575877   -1.116706
O       2.340317   -1.839710    0.152167
C       1.370482   -1.856246    1.189565
C       0.727165   -0.476683    1.318905
O       0.672203    0.111976    2.371998
H       1.055250    2.041758   -0.052296
H      -0.533408    1.966530   -0.828905
H      -0.401873    1.972214    0.945916
H      -0.915440   -0.302053    0.080224
H       0.010428   -0.691460   -2.035222
H       2.319996   -0.136070   -2.757662
H       2.754801    0.404767   -1.065709
H       1.777850   -2.450727   -1.763818
H       0.593506   -2.616585    1.004572
H       1.891386   -2.098343    2.117304
