13

O      -0.053367    0.015524   -0.000753
C       0.022667    1.219960    0.007495
C       1.280030    1.990274   -0.000728
N       2.478116    1.402165   -0.018766
N       3.346559    2.415993   -0.020634
C       2.767239    3.639728   -0.004671
C       1.400332    3.416936    0.008748
C       0.369207    4.381751    0.027643
C      -0.515247    5.198697    0.043862
H      -0.882667    1.862821    0.022513
H       4.332600    2.208211   -0.033286
H       3.340443    4.552299   -0.003992
H      -1.296142    5.918179    0.058317
