15

O      -0.070134    1.443178    0.019310
C       0.082922    0.049154    0.096798
C       0.095114   -0.364075    1.594832
C      -1.418434   -0.599003    1.465046
O      -2.353630   -0.593720    2.206799
C      -1.286646   -0.675110   -0.077100
O      -2.190007    0.010308   -0.920534
C      -3.518282   -0.266391   -0.797383
O      -4.331178    0.280271   -1.475132
H      -0.637966    1.636518   -0.737215
H       0.902182   -0.320328   -0.529069
H       0.642169   -1.290776    1.792798
H       0.407964    0.410977    2.295379
H      -1.153212   -1.717491   -0.395461
H      -3.730494   -1.022486   -0.024850
