17

C       0.007873    1.460997    0.182002
C      -0.025745    0.014761    0.035432
C      -0.060689   -1.184550   -0.076021
C      -0.058004   -2.594848   -0.250652
C       0.749056   -3.438900   -1.249856
C      -0.409008   -4.510623   -1.204921
O      -0.111434   -5.796853   -0.744063
C      -1.154885   -3.593779   -0.219215
O      -0.274146   -3.453805    0.900980
H       0.794796    1.902636   -0.439001
H      -0.944776    1.914926   -0.112430
H       0.205774    1.745288    1.221287
H       0.854284   -2.968943   -2.229766
H       1.723830   -3.773254   -0.887883
H      -0.911956   -4.616819   -2.168648
H       0.208944   -5.687881    0.160885
H      -2.216626   -3.473352   -0.033971
