23

C      -0.100690    1.589091    0.136293
C      -0.136151    0.059116    0.116919
C       0.863336   -0.571552    1.105800
C       0.860488   -2.071692    1.101150
C       1.885650   -2.876165    0.794186
C       1.561952   -4.317827    0.988924
C       1.243756   -4.715484    2.418140
C       0.124444   -4.331418    1.485186
C      -0.367370   -2.885539    1.492652
H       0.894533    1.965616   -0.125584
H      -0.815272    2.014312   -0.575386
H      -0.348544    1.978638    1.130182
H      -1.150661   -0.285976    0.350992
H       0.085801   -0.306395   -0.893310
H       1.873183   -0.209667    0.876629
H       0.627528   -0.204165    2.116227
H       2.867286   -2.531563    0.485331
H       1.953190   -5.066785    0.308818
H       1.323135   -5.766310    2.678531
H       1.532711   -4.029533    3.208698
H      -0.560821   -5.111572    1.175447
H      -0.762375   -2.578465    2.470923
H      -1.186594   -2.741271    0.775288
