20

C       0.059071    1.508146    0.021905
C      -0.022601   -0.018789   -0.026896
C      -1.472833   -0.505798   -0.011787
C       0.789875   -0.617606   -1.173965
C       2.227257   -0.765159   -0.739733
C       1.309356   -1.972306   -0.760020
C       1.225113   -1.916532    0.794741
C       2.125957   -0.732359    0.814675
N       0.698450   -0.586722    1.136488
H       1.101059    1.841414    0.024498
H      -0.438457    1.951556   -0.846675
H      -0.425326    1.889128    0.925625
H      -2.019062   -0.126027   -0.881262
H      -1.515708   -1.598734   -0.033351
H      -1.983732   -0.160068    0.891511
H       0.553249   -0.420267   -2.212977
H       3.094640   -0.544885   -1.344763
H       1.338891   -2.853924   -1.383567
H       1.098344   -2.744295    1.480546
H       2.878598   -0.404149    1.519938
