18

C      -0.121787    1.542829   -0.014634
C       0.034563    0.013408    0.007699
C       0.851137   -0.532623   -1.207693
C       1.327514   -1.922263   -0.771023
C       1.510696   -1.812903    0.746586
O       2.091335   -2.593024    1.451436
C       0.838599   -0.516096    1.222877
C      -1.299508   -0.608748   -0.000340
N      -2.347440   -1.096978   -0.013855
H       0.865997    2.013279   -0.001241
H      -0.647814    1.868111   -0.916612
H      -0.685039    1.895996    0.853202
H       0.262151   -0.535274   -2.126794
H       1.706208    0.135273   -1.361222
H       0.555969   -2.680599   -0.955196
H       2.244063   -2.267839   -1.253089
H       1.632363    0.198897    1.473702
H       0.247533   -0.680127    2.125451
