15

O       0.105082    1.385239   -0.099197
C       0.078479    0.025073   -0.031939
C       0.038059   -0.796413   -1.133211
N      -0.012688   -2.100651   -0.667991
C       0.047592   -3.275099   -1.502303
C       1.416424   -3.648337   -1.902874
N       2.485662   -3.948441   -2.219593
C       0.017787   -2.100260    0.701801
C       0.065598   -0.795002    1.132750
H       0.167758    1.735099    0.793982
H       0.039101   -0.569191   -2.185608
H      -0.401546   -4.117367   -0.967167
H      -0.548866   -3.114269   -2.406628
H       0.002884   -3.026020    1.254676
H       0.070477   -0.462928    2.160264
