22

C       0.059472    1.580168    0.227438
C      -0.037384    0.065125    0.022071
C       0.627095   -0.454152   -1.263994
C       0.794893   -1.988561   -1.326427
C       0.573482   -2.319504   -2.823551
N      -0.186480   -1.199294   -3.392169
C      -0.140521   -0.238306   -2.559015
O      -0.702228    0.961160   -2.761191
C      -1.390547    1.122383   -4.003995
H       1.106223    1.903394    0.263583
H      -0.430112    2.122356   -0.584057
H      -0.410135    1.875238    1.171114
H       0.438239   -0.442918    0.870552
H      -1.088744   -0.249538    0.031614
H       1.604454    0.040045   -1.371004
H       1.759934   -2.329864   -0.943986
H       0.014179   -2.461611   -0.719711
H       1.524761   -2.417730   -3.364371
H       0.030509   -3.258335   -2.973505
H      -0.707305    0.973404   -4.844683
H      -2.205793    0.398482   -4.089562
H      -1.779943    2.141231   -3.999968
