19

C      -0.541492    1.335054    0.047794
C       0.077598   -0.055993   -0.032923
C       1.161305   -0.228549   -1.127411
O       2.217462   -1.015268   -0.561147
C       1.717712   -1.642670    0.603989
C       0.839437   -0.537477    1.245971
N       1.622518    0.555301    1.835593
C      -0.075038   -1.073247    2.255964
N      -0.786308   -1.522618    3.048084
H       0.213702    2.091728    0.270726
H      -1.024486    1.590373   -0.901004
H      -1.301065    1.379207    0.833628
H      -0.715866   -0.788590   -0.212778
H       0.753333   -0.725645   -2.016884
H       1.590669    0.729830   -1.439625
H       1.119742   -2.537192    0.369118
H       2.562753   -1.932625    1.233209
H       2.033570    0.249485    2.712866
H       2.395500    0.761703    1.207069
