18

C      -0.141329    1.360064   -0.022849
N       0.052745   -0.085865    0.061357
C       1.458387   -0.515957   -0.130183
C       0.851358   -0.546959    1.220206
C       0.590561   -1.992451    1.546483
C      -0.058073   -2.405312    2.824397
C       0.971340   -2.772170    0.518744
C       1.570766   -1.968405   -0.576721
O       2.072664   -2.366153   -1.601982
H       0.702026    1.949075    0.373157
H      -0.290638    1.634601   -1.071411
H      -1.044624    1.629006    0.533583
H       2.194077    0.215565   -0.445674
H       1.104667    0.170622    1.994458
H      -1.051454   -1.947755    2.913385
H      -0.168234   -3.489812    2.893880
H       0.522965   -2.059398    3.688279
H       0.852881   -3.846200    0.448591
