16

C       0.121889    1.560478   -0.177452
C       0.105947    0.060920    0.032007
N       1.049325   -0.713107   -0.810279
C       1.355211   -1.636416    0.294526
C       2.748517   -2.065163    0.400987
N       3.840006   -2.433623    0.484566
C       0.793971   -0.566820    1.298913
C       1.784837    0.274138    1.946218
N       2.550021    0.960169    2.474769
H       1.136241    1.955763   -0.088455
H      -0.256041    1.800364   -1.176606
H      -0.519615    2.061319    0.554793
H      -0.924694   -0.321045   -0.017453
H       0.672014   -1.141574   -1.648602
H       0.719813   -2.532841    0.335286
H       0.115545   -0.970964    2.050955
