16

C      -0.165512    1.216768   -0.318028
C      -0.014768   -0.220724   -0.171905
C       0.115260   -1.413097   -0.046997
C       0.225283   -2.823172    0.068642
C      -0.762377   -3.750545   -0.635320
C      -1.798154   -3.091943   -1.414513
C      -2.667021   -2.580726   -2.067148
N       1.189522   -3.282243    0.789567
O       1.176114   -4.679376    0.814160
H       0.708168    1.657807   -0.810816
H      -1.048263    1.460633   -0.918600
H      -0.277274    1.703743    0.657121
H      -0.181941   -4.432318   -1.270049
H      -1.212091   -4.397212    0.129006
H      -3.432326   -2.121874   -2.642281
H       1.932397   -4.880574    1.375628
