13

O       0.034998    0.044299   -0.085506
C       0.022853    1.232608    0.033898
C      -1.125242    2.271969    0.150243
C      -0.050075    3.368117   -0.009382
C       0.949264    3.251454    1.100108
C       1.085957    2.294544   -0.068237
C      -0.179841    4.525658   -0.830424
N      -0.297880    5.464566   -1.496567
H      -1.795537    2.186373   -0.708715
H      -1.712229    2.298108    1.071635
H       1.715712    4.017535    1.136424
H       0.617951    2.893137    2.070202
H       1.978635    2.273707   -0.680117
