22

C      -0.009386    1.594384   -0.039347
C       0.013128    0.063020    0.018676
C       0.723409   -0.602831   -1.190806
C       1.480983   -1.794662   -0.601204
C       1.364761   -3.169956   -1.167528
N       2.623720   -2.414260   -1.295099
C       1.584525   -1.518380    0.867437
C       2.470285   -2.321740    1.764227
C       0.779913   -0.503843    1.195211
H       1.008533    1.997510   -0.081215
H      -0.551225    1.949598   -0.922705
H      -0.500661    2.016254    0.844057
H      -1.030135   -0.285168    0.067572
H       0.035651   -0.882967   -1.993978
H       1.449092    0.106336   -1.610983
H       1.420773   -4.043689   -0.523467
H       0.737412   -3.299121   -2.046508
H       2.702771   -2.028257   -2.233365
H       3.493629   -2.339831    1.374996
H       2.480954   -1.918557    2.780052
H       2.140799   -3.367135    1.820202
H       0.647873   -0.122285    2.203295
