21

C       0.071677    1.532025   -0.020783
C       0.268296    0.015278    0.042031
C       0.467848   -0.499751    1.473668
C       0.612395   -2.003599    1.544467
C       1.887742   -2.719587    1.137537
O       3.049889   -1.920120    1.052470
C       3.550259   -1.851442    2.375853
O       2.431094   -1.897104    3.243228
C       1.478923   -2.701060    2.578385
H       0.936570    2.059790    0.396434
H      -0.061966    1.875540   -1.051369
H      -0.810389    1.842636    0.550688
H      -0.597379   -0.486297   -0.410862
H       1.139591   -0.272385   -0.558138
H       1.350245   -0.027690    1.914742
H      -0.383787   -0.198628    2.097999
H      -0.287362   -2.563167    1.291470
H       1.888404   -3.598530    0.501667
H       4.225260   -2.701644    2.575665
H       4.074156   -0.901641    2.513980
H       1.135288   -3.562861    3.140537
