18

O       0.692019    0.412454    1.026874
C       0.064590   -0.354389   -0.006316
C      -1.448576   -0.111116    0.056544
O      -2.204074   -1.093731   -0.654173
C      -2.454287   -1.016703   -1.986307
N      -2.078048   -0.256995   -2.917845
C      -1.120625    0.839973   -2.802948
C       0.296771    0.409935   -2.455434
C       0.760344   -0.106358   -1.317040
H       0.815474    1.305331    0.685653
H       0.227932   -1.400468    0.283491
H      -1.747065   -0.228584    1.100310
H      -1.718983    0.900550   -0.251638
H      -3.141250   -1.829422   -2.225836
H      -1.087654    1.317962   -3.786137
H      -1.470685    1.619412   -2.116493
H       1.011652    0.520972   -3.267645
H       1.817338   -0.363535   -1.273626
