15

C      -0.160494    1.401365   -0.000123
C      -0.047775   -0.046923    0.007220
C       0.053225   -1.249165    0.011944
C       0.172266   -2.648944    0.017645
N       1.228552   -3.392431    0.150621
C       0.771712   -4.696098    0.093787
C      -0.581952   -4.679323   -0.080782
N      -1.553553   -5.638749   -0.283319
O      -0.989610   -3.390744   -0.133284
H       0.752029    1.862209   -0.393745
H      -0.996606    1.727784   -0.628222
H      -0.325739    1.796834    1.008637
H       1.433683   -5.542183    0.179587
H      -1.284625   -6.554975    0.046230
H      -2.462769   -5.371419    0.070911
