19

C       0.643153    1.341687   -0.747031
C       0.270317    0.008267   -0.296716
C      -0.033880   -1.098348    0.071208
C      -0.417056   -2.416373    0.532527
C      -0.320054   -2.744435    2.056324
C      -1.664115   -3.540362    1.944799
C      -1.933074   -2.785447    0.599361
C      -1.493683   -4.973852    1.796467
C      -1.340923   -6.159417    1.660719
H       1.375522    1.298487   -1.560936
H      -0.227300    1.896248   -1.115328
H       1.087043    1.927605    0.065700
H       0.115401   -3.186775   -0.035279
H       0.558180   -3.295075    2.394897
H      -0.446815   -1.845258    2.662886
H      -2.386766   -3.334634    2.739063
H      -2.548659   -1.898697    0.764395
H      -2.343083   -3.368838   -0.225671
H      -1.213651   -7.207537    1.549325
