21

C      -0.009975    1.375332    0.091087
O      -0.007690   -0.013002   -0.149575
C      -1.281636   -0.612461   -0.040328
C      -1.231706   -2.057102   -0.507036
C      -0.899972   -2.901504    0.708274
C      -0.740356   -1.943992    1.885590
C      -1.770392   -0.893917    1.411725
C      -3.021246   -1.758107    1.132344
C      -2.336102   -2.786424    0.233441
H       1.004676    1.737871   -0.091955
H      -0.701536    1.902591   -0.585304
H      -0.288993    1.623441    1.125970
H      -2.020129   -0.014403   -0.599358
H      -0.919859   -2.324170   -1.507458
H      -0.341700   -3.823777    0.619202
H      -1.013737   -2.393811    2.845920
H       0.268672   -1.530215    1.957309
H      -1.916308   -0.024537    2.051669
H      -3.443780   -2.196616    2.042840
H      -3.813028   -1.201037    0.619538
H      -2.862620   -3.621134   -0.210338
