21

C       0.035194    1.506046   -0.125570
C      -0.012053   -0.004826    0.108498
C      -1.438405   -0.569172    0.038119
O      -2.077897   -0.261933   -1.195716
C      -1.468107   -2.064029    0.229613
C      -0.763661   -3.014557    1.234080
C      -1.372011   -3.848395    0.082492
C      -2.679005   -3.033008    0.178344
O      -0.845883   -2.853780   -0.884412
H       1.065486    1.873879   -0.119514
H      -0.417423    1.757966   -1.087733
H      -0.516757    2.044932    0.653021
H       0.600722   -0.527946   -0.636039
H       0.413448   -0.250826    1.089683
H      -2.054872   -0.103943    0.819016
H      -1.727062   -0.887641   -1.842847
H       0.325213   -2.961266    1.243596
H      -1.198765   -3.118396    2.231045
H      -1.224931   -4.900251   -0.160533
H      -3.287176   -3.137094    1.080334
H      -3.270886   -2.985055   -0.735266
