19

O       0.179829   -0.186482    0.101496
C       0.020831    0.989013   -0.099202
C       1.113223    2.029774    0.022362
C       1.256613    2.980545   -1.163873
C       0.635583    2.630642   -2.474732
N       0.077346    3.717858   -1.653740
C       2.509853    3.818165   -1.204527
C       3.380907    4.050966   -0.025331
N       3.851427    3.217648   -1.147126
H      -0.988070    1.382764   -0.365289
H       0.892591    2.623683    0.922547
H       2.046307    1.489235    0.210214
H       1.109210    2.951275   -3.398317
H       0.086526    1.695576   -2.556595
H      -0.771035    3.415357   -1.181445
H       2.426120    4.616330   -1.938408
H       3.893799    5.002049    0.085208
H       3.131258    3.567220    0.914772
H       3.789902    2.232390   -0.899076
