22

C      -0.236088    1.918928    0.212935
C      -0.138580    0.415092    0.073451
C      -1.370407   -0.199020   -0.588461
O      -1.239514   -1.594781   -0.831275
N       1.185397   -0.117410   -0.293982
C       0.617249   -0.427208    1.039780
C       1.336518    0.084841    2.244182
C       0.798621   -0.228271    3.620550
C       2.068891   -0.883636    3.142364
H       0.676338    2.336496    0.640473
H      -0.386680    2.388360   -0.766518
H      -1.078890    2.201377    0.854388
H      -2.238712   -0.062025    0.068676
H      -1.586841    0.340513   -1.522278
H      -1.002651   -1.721645   -1.752892
H       1.062690   -0.937468   -0.885636
H       0.224088   -1.436581    1.157209
H       1.804692    1.054646    2.116869
H       0.865124    0.537223    4.385713
H      -0.093871   -0.842496    3.685780
H       2.030150   -1.937400    2.885754
H       3.010228   -0.567404    3.577666
