19

C       0.258894    1.578396   -0.175063
C       0.028105    0.089864    0.084300
O       0.406006   -0.656044   -1.078170
C       1.308927   -1.700816   -0.733940
C       1.550720   -1.538016    0.737333
C       0.831552   -0.526071    1.211743
C       0.723091   -0.082036    2.650084
C       1.363233    1.201637    2.939521
C       1.897975    2.248194    3.190052
H       1.322527    1.780447   -0.327659
H      -0.287430    1.877302   -1.074128
H      -0.091650    2.184167    0.665102
H      -1.050275   -0.066294    0.271722
H       0.866796   -2.682368   -0.973146
H       2.228693   -1.609851   -1.332561
H       2.207985   -2.183670    1.307487
H      -0.338276   -0.019102    2.930857
H       1.162727   -0.851821    3.295047
H       2.369253    3.174651    3.406878
