16

O       0.197550    1.668169   -0.046006
C       0.101974    0.255212    0.070475
C       0.628309   -0.456858   -1.183592
C      -0.086988    0.018970   -2.429523
O       0.460599    0.445130   -3.412091
C       0.803783   -0.239498    1.320319
C       0.082618   -0.451684    2.577581
O       0.457785   -1.556630    1.746270
H       1.093726    1.892155   -0.321623
H      -0.968956    0.044859    0.177542
H       1.705070   -0.294464   -1.311319
H       0.457065   -1.535222   -1.065030
H      -1.197756   -0.056155   -2.375580
H       1.872561   -0.014448    1.366358
H       0.613434   -0.381636    3.525226
H      -0.985040   -0.242582    2.622864
