18

C      -0.046112    1.624010   -0.181508
C      -0.020002    0.122280   -0.015075
C       1.299026   -0.674235   -0.123310
C       2.549355    0.002217   -0.286823
N       3.557646    0.564859   -0.379994
C       0.542579   -0.523444    1.194358
C       1.061020    0.049771    2.506387
C       0.475444   -1.248574    3.105507
O      -0.047679   -1.652932    1.811091
H       0.829129    2.093199    0.275969
H      -0.052549    1.899566   -1.240538
H      -0.942612    2.045809    0.284354
H      -0.857475   -0.413889   -0.454463
H       1.232214   -1.649672   -0.593153
H       2.142453    0.172264    2.574049
H       0.567608    0.968212    2.829326
H       1.211706   -1.966258    3.481690
H      -0.327502   -1.126393    3.838298
