21

C       0.034753    1.588519   -0.271361
C       0.065576    0.085181   -0.094363
C       1.380885   -0.664386   -0.007788
O       2.581601    0.054211    0.070480
C       0.492146   -0.584440    1.204214
C       0.924028    0.195194    2.429480
C       1.870102   -0.629858    3.325922
C       2.349871    0.165352    4.515415
O       2.226413   -0.161687    5.668083
H       0.943829    2.060003    0.108680
H      -0.051986    1.847964   -1.332541
H      -0.820588    2.036251    0.245550
H      -0.722738   -0.436832   -0.631388
H       1.464581   -1.621104   -0.522855
H       2.788945    0.391256   -0.807402
H      -0.039327   -1.502669    1.443535
H       1.433163    1.115896    2.133496
H       0.038622    0.490839    3.005841
H       1.393176   -1.546689    3.685352
H       2.750734   -0.905538    2.729698
H       2.846464    1.128736    4.246741
