19

C      -0.033279    1.376977    0.004645
C       0.002529   -0.134562   -0.034008
O       1.064520   -0.744727   -0.046420
C      -1.294122   -0.844303   -0.025393
C      -1.389831   -2.182766   -0.778347
C      -1.330416   -2.213022    0.701858
O      -0.196137   -2.668315    1.357451
C      -2.551082   -2.553356    1.526664
O      -2.670307   -3.949420    1.711937
H       0.981767    1.774971    0.011681
H      -0.579754    1.765552   -0.862089
H      -0.570720    1.716979    0.897326
H      -2.186038   -0.228273    0.017005
H      -2.329697   -2.391688   -1.276994
H      -0.495562   -2.473330   -1.319781
H       0.576736   -2.291268    0.899216
H      -2.482833   -2.023807    2.490032
H      -3.459520   -2.218109    1.017103
H      -1.814802   -4.250341    2.040234
