13

C       0.018033    1.467022    0.008269
C       0.014913   -0.027729    0.048390
N      -0.080187   -0.759532   -1.063952
N      -0.051217   -2.032862   -0.644064
C       0.060023   -2.156607    0.707010
C       0.105336   -0.865941    1.187221
O       0.215362   -0.514466    2.499978
H       0.940229    1.887210    0.429321
H      -0.061928    1.805679   -1.026646
H      -0.823370    1.894775    0.568052
H      -0.110492   -2.771300   -1.322658
H       0.097281   -3.109464    1.207725
H       0.224380    0.445547    2.558477
