20

C      -0.010149    1.444961    0.019119
N      -0.004489   -0.000384    0.023700
C       0.006603   -0.795926   -1.099737
N       0.041109   -0.200798   -2.382172
C       0.052628   -2.112661   -0.692241
C       0.053375   -2.114884    0.732281
N       0.047298   -3.245920    1.592260
C      -0.005035   -0.803277    1.156700
C      -0.076789   -0.259180    2.542595
H       0.734261    1.833412    0.720834
H       0.239264    1.781813   -0.988072
H      -0.989561    1.854345    0.297681
H       0.505691   -0.812262   -3.042487
H      -0.888404   -0.010931   -2.747790
H       0.073794   -2.975414   -1.342523
H      -0.018619   -4.103090    1.056968
H       0.892721   -3.304268    2.149870
H       0.853969    0.221225    2.877152
H      -0.877581    0.482251    2.658259
H      -0.288695   -1.082167    3.230932
