20

C      -0.312986    1.434414    0.091600
N      -0.027432    0.011680    0.186750
C       1.275575   -0.471198   -0.259493
C       0.909618   -0.497741    1.186645
C       1.631317    0.403318    2.167497
C       0.446764   -1.841186    1.769197
O       1.551692   -2.633875    2.202981
C      -0.533982   -1.653796    2.841685
C      -1.295891   -1.490981    3.757818
H       0.566980    2.088615    0.190288
H      -0.767905    1.632885   -0.884115
H      -1.036931    1.710717    0.864527
H       1.275617   -1.380674   -0.855975
H       2.017196    0.267693   -0.562793
H       2.005778    1.312964    1.695275
H       0.974690    0.687914    2.996407
H       2.493373   -0.127714    2.583357
H      -0.026852   -2.397017    0.952756
H       1.699499   -2.447757    3.135508
H      -1.987517   -1.359484    4.553202
