16

O      -0.113156    1.502919   -0.227854
C       0.033037    0.106999   -0.165845
C      -1.311978   -0.605748    0.062175
C      -1.282892   -2.138160    0.106497
C      -2.219566   -2.487505    1.240080
N      -2.717793   -3.608683    1.497069
O      -2.451364   -1.342559    2.005832
C      -1.897896   -0.234088    1.415499
O      -1.902435    0.835555    1.955182
H      -0.560080    1.775027    0.585782
H       0.452400   -0.215860   -1.124365
H       0.740180   -0.204175    0.622091
H      -2.015370   -0.242088   -0.696642
H      -1.593762   -2.628181   -0.816009
H      -0.280023   -2.507042    0.353747
H      -3.309606   -3.574087    2.328357
