23

C      -0.096979    1.451094   -0.079566
C       0.047859   -0.073493   -0.047943
C       0.906569   -0.591292   -1.196483
O       0.669869   -0.526834    1.151168
C      -0.127961   -0.467253    2.310884
C       0.611506   -1.191895    3.430143
C      -0.166958   -1.167726    4.754957
C       0.627714   -1.782772    5.884387
O       0.243218   -2.672414    6.597776
H       0.885520    1.925559    0.012412
H      -0.548277    1.770898   -1.024102
H      -0.733313    1.818072    0.730794
H      -0.955985   -0.527417   -0.116442
H       1.912094   -0.162048   -1.141321
H       0.996391   -1.679418   -1.145004
H       0.467403   -0.320471   -2.161067
H      -0.327321    0.574104    2.613315
H      -1.107633   -0.942822    2.130611
H       0.797203   -2.225955    3.119644
H       1.593035   -0.720425    3.560572
H      -0.373225   -0.123135    5.033806
H      -1.124501   -1.691344    4.678046
H       1.643311   -1.339600    6.018881
