13

C      -0.048205    1.546151    0.023965
C      -0.019988    0.052526    0.031539
C      -0.032799   -0.805154   -1.024164
O       0.002559   -2.088093   -0.610492
N       0.040789   -2.127500    0.757083
C       0.027111   -0.868057    1.119771
N       0.060115   -0.547100    2.542812
O       0.099651   -1.465577    3.339060
O       0.044740    0.649017    2.816759
H       0.835540    1.958533    0.517194
H      -0.084618    1.919516   -1.002297
H      -0.916985    1.925661    0.567535
H      -0.064850   -0.657789   -2.092472
