15

C      -0.070914   -1.168780   -0.435973
C      -0.002848    0.010918   -0.215093
C       0.070349    1.429786    0.005816
N       0.250179    1.902882    1.397147
C       1.331769    2.121266    0.433765
C       2.599409    1.374044    0.674379
C       3.782473    1.595562   -0.165130
O       3.701652    2.156608    1.145530
H      -0.132832   -2.213025   -0.618755
H      -0.582159    2.015649   -0.638703
H      -0.282951    2.756172    1.542536
H       1.481199    3.126845    0.043742
H       2.475997    0.412368    1.168774
H       4.508838    0.794464   -0.292196
H       3.736670    2.312568   -0.984435
