16

O      -0.148948    1.473366    0.122572
C      -0.003441    0.082030    0.115976
C      -0.606715   -0.729479    1.233364
C      -1.251165   -0.715460   -0.139033
C      -2.559360    0.004108   -0.350194
C      -3.763753   -0.813328    0.054505
O      -3.742074   -1.940659    0.477395
C      -5.061058   -0.113481   -0.116787
N      -6.066118    0.442288   -0.251368
H       0.427275    1.831308    0.805813
H       0.918913   -0.277603   -0.338829
H      -0.108022   -1.633093    1.564377
H      -1.109008   -0.173107    2.018333
H      -1.132444   -1.617248   -0.730471
H      -2.582008    0.954827    0.195939
H      -2.701562    0.289025   -1.403469
