16

C       0.360907    1.503864   -0.017087
N       0.239922    0.062269   -0.055855
C       0.335672   -0.582626    1.027927
N       0.275074   -1.963668    1.076956
C      -0.158853   -2.715828   -0.086160
C       0.905352   -3.757562   -0.470111
O       0.678137   -4.889343   -0.786999
C      -1.489641   -3.307870    0.086087
N      -2.535420   -3.763303    0.266084
H       1.191350    1.824465   -0.656643
H      -0.548302    1.962511   -0.421877
H       0.529634    1.905021    0.994774
H       0.509147   -0.128388    2.012066
H       0.114208   -2.384886    1.977920
H      -0.194000   -1.981064   -0.906252
H       1.930076   -3.332517   -0.416794
