19

O       0.001616   -0.082411   -0.109398
C      -0.013127    1.130329    0.016852
N      -1.188126    1.844169    0.139878
C      -1.289671    3.290809    0.013416
C      -0.043238    3.924668    0.591482
C      -0.057816    5.377822    0.970765
C      -0.028835    4.314670    2.045831
C       1.203822    3.324659   -0.020372
N       1.144987    1.875830    0.108100
H      -2.001551    1.281591   -0.052031
H      -1.409621    3.599870   -1.038536
H      -2.178761    3.634400    0.553095
H       0.841806    5.960147    0.799589
H      -0.977202    5.935474    0.824219
H      -0.929218    4.149227    2.627417
H       0.891114    4.173929    2.602776
H       1.286864    3.636577   -1.075039
H       2.097541    3.692372    0.495231
H       1.967847    1.335457   -0.106097
