21

C       0.033282    1.575582    0.013996
C       0.008993    0.045156   -0.006653
C       0.653873   -0.513023   -1.289197
C       0.857871   -2.029800   -1.284454
C       2.090767   -2.617353   -0.676827
C       0.752776   -2.803093    0.029101
C       0.474142   -2.061252    1.290385
O       0.042538   -2.620984    2.275690
C       0.690997   -0.554639    1.241092
H       1.063452    1.950938    0.024133
H      -0.463953    1.991381   -0.868934
H      -0.473881    1.967851    0.901166
H      -1.040679   -0.280841    0.009751
H       0.031583   -0.237305   -2.147217
H       1.620215   -0.014210   -1.443487
H       0.459707   -2.553829   -2.147233
H       2.530768   -3.503877   -1.119093
H       2.810023   -1.939098   -0.229098
H       0.330406   -3.801363    0.013743
H       1.766308   -0.328133    1.213087
H       0.289917   -0.132612    2.166141
