20

C       0.164069    1.641798   -0.049301
C      -0.036713    0.125632   -0.008211
N       0.606371   -0.475524   -1.186541
C       0.092876   -1.784242   -1.587902
C       0.492275   -2.922283   -0.643977
O       1.151593   -3.855102   -1.035891
C      -0.047036   -2.871406    0.784955
C       0.525458   -1.740284    1.613782
C       0.527066   -0.453165    1.277925
H       1.232152    1.881760   -0.066694
H      -0.302375    2.079330   -0.938280
H      -0.281909    2.114144    0.830300
H      -1.127871   -0.075806   -0.022237
H       0.491782    0.153871   -1.973925
H      -1.014942   -1.802901   -1.662917
H       0.503204   -2.035342   -2.568423
H      -1.141244   -2.769708    0.727668
H       0.172849   -3.835925    1.245611
H       0.975692   -2.034969    2.557564
H       0.972029    0.260996    1.966871
