20

C       0.301694    1.512128    0.319449
C      -0.201107    0.130322   -0.119614
C       0.591899   -0.453805   -1.275484
C       2.000894   -1.004902   -1.056322
C       0.903671   -1.956535   -1.392326
C       0.378335   -2.970243   -0.400302
C       0.375225    0.190766   -2.595347
O      -0.409585    1.081216   -2.816707
H       1.347773    1.469215    0.641744
H       0.225471    2.230053   -0.500474
H      -0.291545    1.890824    1.157446
H      -0.174333   -0.554756    0.732963
H      -1.249339    0.209846   -0.428183
H       2.763679   -0.787447   -1.797386
H       2.356305   -0.980854   -0.030975
H       0.908784   -2.320998   -2.417703
H       0.465088   -2.621950    0.631838
H      -0.673352   -3.209537   -0.589281
H       0.951417   -3.900384   -0.479590
H       1.006956   -0.229963   -3.415071
