20

C      -0.014802    1.447837   -0.167357
C       0.082549   -0.059286    0.103850
C       0.741911   -0.357119    1.456983
C      -1.299118   -0.696321    0.046072
O      -1.986544   -0.512785   -1.232488
C      -2.277530   -1.910639   -1.288212
C      -1.024948   -2.716433   -1.404443
C      -1.478526   -2.215111   -0.044826
H       0.978750    1.907250   -0.182099
H      -0.498463    1.637876   -1.128926
H      -0.602001    1.948874    0.611747
H       0.692908   -0.511816   -0.687708
H       1.743475    0.081277    1.505598
H       0.156509    0.065481    2.282455
H       0.838759   -1.433908    1.629685
H      -1.933100   -0.280109    0.842899
H      -3.264015   -2.212074   -1.620400
H      -1.166986   -3.783151   -1.549304
H      -0.159058   -2.296074   -1.907017
H      -1.692864   -2.876029    0.783620
