20

C      -0.013382    1.583824    0.073011
C      -0.030887    0.054871    0.016567
C       0.734623   -0.503278   -1.199195
C       0.722113   -1.997950   -1.271886
N       1.691287   -2.740990   -0.730371
N       1.302240   -3.983794   -0.980441
N       0.163132   -4.126146   -1.645522
C      -0.236678   -2.867760   -1.845430
C      -1.500862   -2.548655   -2.575391
H       1.011500    1.965707    0.137964
H      -0.471524    2.019724   -0.822084
H      -0.563153    1.955959    0.942959
H       0.411356   -0.360331    0.929585
H      -1.067498   -0.303857   -0.011609
H       0.299846   -0.090315   -2.118175
H       1.774527   -0.161692   -1.159221
H       1.852158   -4.777953   -0.697719
H      -2.229360   -2.052135   -1.924987
H      -1.315117   -1.879744   -3.422906
H      -1.953585   -3.466562   -2.955494
