20

C      -0.462916   -0.986735    3.482963
C      -0.277375   -0.882099    1.982906
C       0.798664   -0.006694    1.439151
N       0.929262   -1.471789    1.375476
C      -1.517575   -1.140931    1.148897
O      -2.789939   -1.055812    1.799726
C      -2.495032   -0.110532    0.756333
C      -2.428561    1.327673    1.203811
O      -3.717980    1.819296    1.529749
H       0.477725   -0.773725    4.001073
H      -1.221841   -0.287453    3.842378
H      -0.792836   -1.992883    3.763205
H       0.670784    0.479782    0.475683
H       1.411675    0.547731    2.146074
H       1.561650   -1.798830    2.102172
H      -1.411776   -2.002721    0.489512
H      -3.074751   -0.274646   -0.153524
H      -1.731331    1.428534    2.047168
H      -2.057523    1.956148    0.386672
H      -4.081624    1.221662    2.193031
