11

O      -0.090206    0.020044    0.002616
C      -0.047714    1.216127    0.008946
C       1.333809    1.916013   -0.001913
O       2.378545    1.333805   -0.015790
N       1.296230    3.338144    0.005831
C       2.331874    4.220598   -0.000502
N       1.855380    5.434388    0.010952
N       0.484661    5.298060    0.024614
N       0.138042    4.068961    0.021648
H      -0.933962    1.870875    0.021061
H       3.366232    3.921156   -0.012917
