18

C      -0.009856    1.567688    0.019999
C       1.336822    2.226525   -0.082347
C       2.459734    1.518988   -0.180787
C       2.426553    0.024123   -0.209894
C       2.162265   -0.770586    1.067158
C       0.633466   -0.722792    1.254794
C       1.270428   -1.684202    0.291148
N       1.161243   -0.603223   -0.801040
C       0.078355    0.042494    0.058291
H      -0.532793    1.910273    0.924331
H      -0.641447    1.887959   -0.821092
H       1.361399    3.313272   -0.093624
H       3.426396    2.008779   -0.257464
H       3.278544   -0.386932   -0.758976
H       2.824184   -1.003237    1.892447
H       0.178774   -0.935483    2.215245
H       1.212248   -2.750735    0.130799
H      -0.875221   -0.396564   -0.251432
