19

O      -0.350814    1.475300    0.254679
C      -0.234887    0.068787    0.067334
C      -1.646721   -0.501336    0.100624
N      -2.480234    0.080635   -0.932302
C      -2.916788   -0.641053   -2.005452
O      -2.782192   -1.843432   -2.130935
N      -3.523097    0.186157   -2.986784
C      -4.568165   -0.396820   -3.805791
C      -4.902649    0.642690   -2.789898
H       0.504370    1.878592    0.082062
H       0.233953   -0.167079   -0.899038
H       0.367560   -0.394341    0.864015
H      -1.627193   -1.580158   -0.064818
H      -2.084313   -0.306473    1.087761
H      -2.456443    1.084714   -1.018901
H      -4.532877   -0.135040   -4.859109
H      -4.836038   -1.426261   -3.587837
H      -5.414661    0.316311   -1.888081
H      -5.106630    1.667037   -3.089218
