15

C       0.012083    1.491911    0.009247
O       1.258522    0.752731   -0.007688
C       0.067369    0.039450    0.001725
C      -0.525348   -0.974051    0.995453
O      -1.615148   -1.121180    0.014288
C      -0.546692   -0.964587   -0.988645
C       0.276299   -2.252462   -0.744159
O       1.497849   -2.041809   -0.023595
C       0.292066   -2.259449    0.721047
H      -0.196735    2.025223    0.934732
H      -0.216543    2.034003   -0.906404
H      -0.859387   -0.742353    2.004888
H      -0.902345   -0.723304   -1.988405
H       0.220357   -3.125818   -1.383299
H       0.249800   -3.138866    1.352886
