19

C      -0.138954    1.596550   -0.049893
C       0.006068    0.065342    0.023593
O       0.680800   -0.321760    1.191997
C      -1.366811   -0.610128   -0.012552
O      -1.779371   -1.165820    0.990183
C      -2.178586   -0.564747   -1.266012
O      -1.594260    0.035128   -2.387255
C      -3.183750   -1.686209   -1.478363
C      -3.666737   -0.322018   -1.099476
H       0.852638    2.044966    0.049810
H      -0.580758    1.907696   -0.998649
H      -0.759292    1.956100    0.776873
H       0.578907   -0.271823   -0.853857
H       0.011252   -0.767085    1.736334
H      -1.012466   -0.606345   -2.809780
H      -3.317702   -2.003497   -2.506326
H      -3.205017   -2.464345   -0.724890
H      -4.022630   -0.168330   -0.088041
H      -4.116959    0.293663   -1.868928
