19

C       0.188186    1.559392   -0.088973
C       0.051985    0.050107    0.039924
O       0.663060   -0.558941   -1.099679
C       1.211486   -1.834983   -0.762044
C       2.429035   -2.083732   -1.638860
C       1.478749   -1.757906    0.732905
N       2.224725   -0.536733    1.106001
C       0.752110   -0.576555    1.235484
H       1.244153    1.837658   -0.055912
H      -0.237478    1.898709   -1.037177
H      -0.341399    2.064354    0.725627
H      -1.015226   -0.229294    0.089557
H       0.458379   -2.625048   -0.929660
H       3.203210   -1.347334   -1.410906
H       2.828214   -3.088726   -1.466635
H       2.159371   -1.998053   -2.694965
H       1.599557   -2.668019    1.311045
H       2.641171   -0.671213    2.024213
H       0.290330   -0.539510    2.216572
