16

O      -0.061667    1.428461    0.066364
C      -0.014578    0.047345    0.040949
C      -0.273301   -0.769979   -1.184448
C      -1.184325   -0.942783    0.016392
C      -0.527887   -1.780896    1.135884
C       0.524439   -2.848490    0.764730
O       1.575737   -1.847416    0.699663
C       0.665305   -0.808782    1.139615
H       0.621774    1.766937   -0.522956
H      -0.734989   -0.207239   -1.990084
H       0.420000   -1.540245   -1.505160
H      -2.246666   -0.749647   -0.065518
H      -1.142687   -1.948550    2.018337
H       0.724687   -3.574061    1.562157
H       0.394344   -3.381972   -0.183907
H       1.014569   -0.257599    2.016228
