15

C      -0.039761    1.505063    0.009441
C       0.032327   -0.004381    0.003003
O       1.081090   -0.613327   -0.007665
C      -1.270998   -0.760110    0.010164
N      -2.414909   -0.066124    0.021846
C      -3.540447   -0.777768    0.027798
C      -3.528087   -2.172231    0.022143
N      -2.391612   -2.873060    0.010487
C      -1.265718   -2.159892    0.004552
H       0.971972    1.910812    0.003124
H      -0.600602    1.863021   -0.859416
H      -0.586955    1.856210    0.889701
H      -4.477506   -0.227181    0.037301
H      -4.457125   -2.736417    0.027146
H      -0.322184   -2.694937   -0.004952
