21

C      -0.719129    1.578835   -0.313915
O      -0.532175    0.176969   -0.292141
C      -1.684485   -0.546098   -0.101613
C      -2.631730   -0.554655    1.144722
C      -3.167653   -1.628359    0.144251
O      -4.214003   -2.511503    0.318162
C      -2.968671   -0.581126   -0.998902
C      -1.697987   -2.099695   -0.048842
C      -1.269146   -2.952177   -1.231824
H       0.262908    2.028852   -0.473989
H      -1.390147    1.884860   -1.128901
H      -1.131035    1.947295    0.636146
H      -2.206944   -0.926316    2.080487
H      -3.260801    0.327125    1.295927
H      -5.030387   -2.007467    0.402257
H      -3.616554    0.299492   -0.959713
H      -2.868200   -0.954559   -2.017762
H      -1.257546   -2.491908    0.875158
H      -1.671924   -2.608587   -2.187324
H      -0.177497   -2.957309   -1.315693
H      -1.596452   -3.987021   -1.087552
