12

O       0.002444   -0.023187    0.203036
C      -0.014056    1.164060    0.011892
N      -1.188720    1.896667   -0.078872
C      -1.215637    3.289938   -0.009310
C      -0.107870    3.985468   -0.251726
C       1.117850    3.216100   -0.638418
O       1.126127    1.880902   -0.084483
H      -2.015673    1.360527    0.126524
H      -2.169460    3.728077    0.257610
H      -0.078943    5.064242   -0.190224
H       1.216456    3.129724   -1.731470
H       2.032750    3.680898   -0.262214
