17

C       0.061576    1.526700    0.025516
C      -0.018040    0.022107   -0.012029
C      -0.878578   -0.776437    0.908513
N       0.580731   -0.779134    1.082489
C       1.270746   -1.930788    0.467001
C       1.023646   -1.820816   -1.016789
C       0.318902   -0.713115   -1.285240
C      -0.085818   -0.261351   -2.569266
N      -0.430294    0.140160   -3.599931
H       1.053237    1.875291   -0.280500
H      -0.677110    1.969767   -0.650317
H      -0.132400    1.890058    1.037155
H      -1.420330   -0.279258    1.708823
H      -1.361668   -1.665183    0.507760
H       2.343491   -1.883174    0.697873
H       0.900284   -2.875020    0.886146
H       1.357794   -2.548089   -1.746482
