21

O      -0.044585    1.436820    0.071336
C       0.030040    0.021810    0.000746
C      -1.390425   -0.537436    0.009234
C      -1.395962   -2.063080   -0.165467
C      -2.824311   -2.622680   -0.179689
C      -3.597606   -2.238955    1.096806
C      -3.540789   -0.738564    1.355926
O      -4.528055   -0.082798    1.595463
C      -2.146657   -0.130164    1.292648
H       0.849955    1.787181    0.104729
H       0.543829   -0.303800   -0.918369
H       0.591653   -0.392112    0.855694
H      -1.914012   -0.089618   -0.847310
H      -0.879703   -2.335761   -1.093375
H      -0.829241   -2.526392    0.655305
H      -3.358006   -2.230202   -1.054880
H      -2.807349   -3.712153   -0.288493
H      -4.644865   -2.546958    1.053547
H      -3.135706   -2.741754    1.958950
H      -1.582346   -0.502143    2.162028
H      -2.221895    0.953864    1.382416
