15

N      -0.114716    1.456024   -0.116704
C      -0.077660    0.032069   -0.009447
C      -0.462401   -0.801319   -1.216716
C      -1.307892   -0.850398    0.019488
C      -0.986209   -1.972253    0.989006
O       0.412017   -1.846500    1.316392
C       0.914343   -0.648595    0.896022
O       1.984618   -0.238714    1.245603
H      -0.167326    1.876107    0.807471
H       0.758152    1.784287   -0.522108
H      -0.850577   -0.223559   -2.047267
H       0.143867   -1.660744   -1.485435
H      -2.301778   -0.422376    0.010372
H      -1.564264   -1.888450    1.916063
H      -1.140286   -2.970708    0.568502
