19

O       0.000424   -0.075138   -0.431465
C      -0.012986    1.093850   -0.113902
C      -1.326334    1.866134    0.000592
C      -1.690223    2.572416    1.326602
C      -0.785355    3.737499    1.775103
O       0.192446    3.414966    2.754261
C       0.988221    2.272686    2.476959
C       1.740771    2.363784    1.173872
C       1.282949    1.848355    0.034608
H      -1.297530    2.629953   -0.790881
H      -2.115799    1.156067   -0.262604
H      -2.698503    2.976316    1.183111
H      -1.777747    1.846623    2.142585
H      -0.315759    4.199873    0.893962
H      -1.394176    4.505980    2.259981
H       1.684154    2.199641    3.317494
H       0.374072    1.360527    2.486744
H       2.692512    2.889075    1.183626
H       1.872783    1.903910   -0.878050
