17

O       0.610753    0.300909   -0.742926
C      -0.162051    0.206364    0.441409
C      -1.497374   -0.439346    0.200797
O      -2.456198   -0.387110    1.260854
C      -3.109301   -1.574811    0.703400
C      -4.255091   -1.069423   -0.160041
O      -3.607425   -0.260110   -1.153037
C      -2.237802   -0.584544   -1.124735
C      -1.946889   -1.798468   -0.288629
H       0.209714    0.976866   -1.298577
H       0.426068   -0.388473    1.148148
H      -0.335958    1.188406    0.908092
H      -3.346629   -2.319309    1.463490
H      -4.810093   -1.894728   -0.632344
H      -4.947677   -0.441363    0.407615
H      -1.720297   -0.410662   -2.059530
H      -1.438237   -2.711299   -0.565942
