16

C       0.061172    1.441208    0.496717
C      -0.052933   -0.024483    0.137832
C      -1.312971   -0.613229   -0.328244
O      -0.255115   -0.321773   -1.245161
C       1.378543    2.019644    0.089393
C       2.173860    1.857654   -1.004133
C       3.270782    2.719415   -0.742658
N       3.152942    3.345692    0.402359
O       1.945695    2.898518    0.936368
H      -0.753327    1.992205    0.010978
H      -0.060698    1.570587    1.577625
H       0.669955   -0.677538    0.628046
H      -1.509956   -1.670941   -0.162412
H      -2.197774    0.015211   -0.421248
H       1.994127    1.225225   -1.856584
H       4.145136    2.904725   -1.350911
