16

C      -0.051487    1.516114   -0.007867
C      -0.030309    0.010434    0.053644
C      -1.229602   -0.777534   -0.464019
C      -1.158832   -2.129780    0.243773
O      -1.805437   -3.112842    0.012021
C      -0.131186   -2.000772    1.417903
O      -0.047723   -2.775825    2.333697
C       0.618360   -0.734860    1.196557
N       1.262194   -0.631666   -0.138253
H       0.877031    1.928156    0.394054
H      -0.152633    1.856080   -1.044423
H      -0.893869    1.917422    0.564398
H      -2.177639   -0.295085   -0.193612
H      -1.227778   -0.892757   -1.553179
H       1.139087   -0.254654    2.017060
H       1.196916   -1.506654   -0.658641
