15

O      -0.032302    1.332332    0.009852
C       1.108528    2.035893    0.002375
C       2.340415    1.462198   -0.012878
C       2.470148    0.042932   -0.021807
C       1.335432   -0.716506   -0.014704
C       1.029543   -2.111123   -0.019245
C      -0.343855   -2.223978   -0.006253
C      -0.980512   -0.926823    0.007091
C       0.037021   -0.021364    0.001865
H       0.920654    3.101262    0.009971
H       3.210290    2.106040   -0.018002
H       3.457677   -0.408076   -0.034004
H       1.750185   -2.915265   -0.030735
H      -0.892767   -3.157872   -0.005870
H      -2.041008   -0.728542    0.018679
