19

C       0.678498    1.430986    0.129587
C      -0.136573    0.156376   -0.048938
O      -1.507825    0.442264   -0.252210
C       0.496049   -0.872576   -1.041557
C       1.034062   -1.682780    0.171588
O       2.392624   -1.301666    0.378350
C       0.041525   -0.887543    1.082888
C       0.891135   -3.131840    0.151448
C       0.779702   -4.329339    0.167663
H       1.725488    1.194621    0.332233
H       0.640846    2.043571   -0.780779
H       0.277797    2.022535    0.959177
H      -1.573949    1.139152   -0.914081
H      -0.282139   -1.417970   -1.576800
H       1.267999   -0.526800   -1.732415
H       2.696244   -1.736279    1.183442
H       0.446252   -0.542660    2.037731
H      -0.889019   -1.434165    1.244751
H       0.680580   -5.386741    0.168265
