18

C      -0.220192    1.162052   -1.448316
C       0.317049   -0.132981   -0.863884
O       1.710702   -0.387654   -1.165946
C       2.115603   -0.498769    0.234523
C       2.548142   -1.919566    0.581848
C       3.156476    0.548386    0.609969
C       0.665699   -0.160352    0.629941
O       0.081957    0.031177    1.653833
H       0.381312    2.017843   -1.129967
H      -0.205972    1.116668   -2.541148
H      -1.252686    1.317910   -1.120561
H      -0.315149   -0.982043   -1.163437
H       3.472959   -2.165844    0.050456
H       2.728086   -2.012354    1.657122
H       1.784009   -2.646504    0.293542
H       2.823887    1.551810    0.332590
H       3.341905    0.528266    1.688067
H       4.097790    0.342477    0.090480
