22

C      -0.056352    1.510102    0.053361
N       0.034426    0.070074    0.105904
C      -1.184114   -0.707413    0.406853
C      -0.361617   -1.607447    1.374146
C      -0.957659   -1.920499    2.730030
O       0.122902   -2.814425    0.800978
C       1.311048   -2.551287    0.053057
C       1.993902   -1.369569    0.758914
C       0.783867   -0.560277    1.216436
H       0.939700    1.943020   -0.089016
H      -0.674888    1.813486   -0.798230
H      -0.495356    1.957924    0.966567
H      -1.959580   -0.127865    0.932907
H      -1.635718   -1.207070   -0.457360
H      -1.785559   -2.629566    2.625202
H      -0.205364   -2.376364    3.380977
H      -1.338981   -1.016352    3.212639
H       1.906244   -3.468469    0.044353
H       1.063876   -2.281410   -0.982378
H       2.570494   -1.711701    1.625488
H       2.655198   -0.806297    0.095452
H       0.965960    0.095758    2.077383
