17

C       0.116804    1.455398    0.045173
N       0.051843    0.001397    0.022109
C       0.098169   -0.772764   -1.101265
C       0.007297   -2.088874   -0.681835
C       0.011343   -3.328487   -1.517384
N      -0.093187   -2.128094    0.673211
C      -0.065558   -0.867303    1.087399
C      -0.145500   -0.408423    2.473917
O      -0.248807   -1.129373    3.438519
H       0.984388    1.801134    0.613051
H       0.207982    1.815465   -0.980353
H      -0.788665    1.882397    0.483943
H       0.189721   -0.334875   -2.082805
H       0.099287   -3.088959   -2.580452
H       0.845517   -3.981743   -1.241951
H      -0.909436   -3.901743   -1.369096
H      -0.103266    0.698266    2.590707
