23

C       0.260685    0.636810    0.739466
O       0.103886   -0.491048   -0.087574
C       0.600134   -0.320180   -1.412409
C       2.142891   -0.466416   -1.506650
C       2.393250   -1.933692   -1.814702
C       1.673012   -2.958077   -0.965819
C       1.103058   -2.558245   -2.307810
C       1.059182   -3.561321   -3.435450
C       0.038716   -1.464307   -2.281166
H       1.315896    0.886762    0.925113
H      -0.228949    1.524289    0.307371
H      -0.212957    0.403843    1.696606
H       0.270773    0.663289   -1.779152
H       2.520198    0.156103   -2.327323
H       2.634295   -0.120326   -0.591060
H       3.345222   -2.211496   -2.255976
H       2.123096   -3.943959   -0.903185
H       1.175916   -2.626151   -0.061920
H       1.920652   -4.236025   -3.399449
H       0.155087   -4.180297   -3.385951
H       1.064618   -3.064239   -4.413420
H      -0.927200   -1.794435   -1.886238
H      -0.128156   -1.100942   -3.302901
