12

O       0.015234   -0.081429   -0.001951
C      -0.006162    1.126474    0.008857
C       1.185800    1.972443    0.002933
C       1.324690    3.346819    0.013525
C       2.730135    3.612856   -0.000128
C       3.328537    2.390901   -0.017302
O       2.411529    1.399055   -0.015737
C       0.272831    4.296422    0.033646
N      -0.578912    5.080361    0.050003
H      -0.949327    1.709106    0.024472
H       3.208217    4.578444    0.002829
H       4.359578    2.077294   -0.031563
