17

C      -0.160822    1.582886   -0.017081
C      -0.034456    0.060197   -0.005835
C      -1.309133   -0.580327   -0.330174
N      -2.342068   -1.028334   -0.592020
C       1.212379   -0.586873   -0.653850
C       2.156412   -0.228115    0.533338
C       2.566830   -1.694429    0.615751
N       1.093163   -1.841182    0.248628
C       0.769512   -0.610354    1.133105
H       0.796004    2.051946    0.225871
H      -0.479141    1.936763   -1.001642
H      -0.903668    1.914170    0.713914
H       1.457188   -0.682029   -1.712730
H       2.739775    0.684054    0.689910
H       3.246218   -2.084835   -0.148073
H       2.813397   -2.107805    1.598471
H       0.492190   -0.733194    2.181063
