20

C      -0.061516    1.620546   -0.025629
C       0.088685    0.110353   -0.088672
C       0.727596   -0.673041   -1.257822
C       1.233127   -1.649062   -0.127692
C       2.353013   -0.699546    0.078074
N       1.068986   -0.550254    0.852469
C       2.211438   -0.175114   -1.344111
C       3.035856   -0.988999   -2.343095
O       2.484793    1.204064   -1.504752
H       0.886167    2.135189   -0.171360
H      -0.762668    1.960650   -0.796871
H      -0.477588    1.900989    0.947866
H      -0.876473   -0.354260    0.145840
H       0.180769   -0.925531   -2.166644
H       1.109268   -2.701734    0.085447
H       3.256871   -0.813056    0.662700
H       2.855494   -2.062266   -2.244231
H       2.780608   -0.701614   -3.371098
H       4.103823   -0.799546   -2.196386
H       2.479801    1.409198   -2.445481
