18

N      -0.073720    1.492706   -0.079339
C       0.101853    0.137311   -0.168679
O       1.190435   -0.348988   -0.421121
C      -1.097448   -0.736006    0.082880
C      -2.194829   -0.294811    1.031350
C      -2.463337   -0.312094   -0.441701
C      -0.758759   -2.200601    0.011917
C      -0.542046   -3.017353    1.208309
O      -1.769797   -3.100561    0.470255
H       0.705394    2.065162   -0.360976
H      -0.980222    1.923121   -0.035656
H      -2.654511   -1.080243    1.619721
H      -2.070556    0.651709    1.544826
H      -2.535408    0.621265   -0.989364
H      -3.095371   -1.106717   -0.821572
H      -0.262977   -2.505476   -0.907313
H       0.093726   -3.898675    1.153117
H      -0.623582   -2.557632    2.191654
