17

C       0.054832    1.553453   -0.085254
C       0.057958    0.068963    0.027182
O       0.504872   -0.712118   -1.081401
C       1.187707   -1.647118   -0.206922
C       0.672098   -0.932097    1.036946
C       1.304828   -0.769306    2.292071
C       1.800656   -0.646366    3.383990
C      -0.848631   -0.758950    0.881099
O      -1.479719   -0.082155    1.916338
H       1.061298    1.942699   -0.262436
H      -0.583493    1.856456   -0.923083
H      -0.348836    1.988403    0.831123
H       0.859353   -2.681198   -0.363423
H       2.273248   -1.574022   -0.330320
H       2.262452   -0.523069    4.332211
H      -1.421120   -1.567391    0.420394
H      -1.152422   -0.430786    2.755318
