21

C      -0.014717    1.560726   -0.031573
C       0.155457    0.039563   -0.129527
C       0.756726   -0.555656    1.137687
C      -0.091817   -0.744781    2.447348
C      -0.763675   -1.987233    1.774800
C       0.752355   -2.101540    1.402507
C       1.013654   -1.723856    2.867435
C       2.162283   -1.695732    3.757644
O       1.026049   -2.574009    3.982849
H       0.939928    2.053335    0.184285
H      -0.400146    1.977558   -0.967095
H      -0.713462    1.830725    0.767397
H      -0.807909   -0.418275   -0.373393
H       0.823006   -0.196662   -0.968665
H       1.732413   -0.089582    1.325941
H      -0.567822    0.024968    3.055059
H      -1.149097   -2.749307    2.454431
H      -1.462880   -1.795196    0.961470
H       1.239570   -2.878929    0.813268
H       3.085323   -2.204681    3.483727
H       2.274481   -0.897237    4.489681
