20

C       0.010394    1.513097    0.033806
C      -0.002001    0.003952   -0.037822
C       0.475443   -0.740472   -1.303672
C      -0.551191   -1.852750   -0.954924
C       0.083821   -2.832270    0.042177
N       0.129937   -2.142627    1.340996
C      -1.023509   -1.264869    1.449711
C       0.358287   -0.690137    1.313828
C      -1.318556   -0.840934   -0.012914
H       1.036134    1.896068    0.104975
H      -0.449387    1.953906   -0.857400
H      -0.537888    1.873799    0.911767
H       0.198494   -0.184001   -2.205403
H       1.527995   -1.035621   -1.378085
H      -1.087744   -2.334121   -1.773811
H      -0.526759   -3.732528    0.175354
H       1.089147   -3.144330   -0.259441
H      -1.699544   -1.341570    2.293337
H       1.033297   -0.282166    2.060211
H      -2.281722   -0.435555   -0.314350
