17

C      -0.074242    1.652322   -0.614656
C      -0.053477    0.213991   -0.162130
C       1.167175   -0.641522   -0.313986
C       0.687920   -0.226936    1.063857
O      -1.260309   -0.499282   -0.460115
C      -2.343333   -0.214852    0.290897
O      -2.387938    0.589159    1.187066
C      -3.471000   -1.020881   -0.129515
C      -4.440143   -1.662444   -0.433912
H       0.906150    2.108173   -0.451362
H      -0.305106    1.715367   -1.683110
H      -0.818208    2.225116   -0.056311
H       1.010820   -1.673340   -0.606245
H       2.060962   -0.181935   -0.720916
H       1.245349    0.523469    1.613115
H       0.225325   -0.986564    1.682366
H      -5.297600   -2.229376   -0.704199
