21

C      -0.079366    1.541932   -0.003516
C       0.064132    0.022700    0.024951
C       0.833704   -0.576499   -1.167729
C       1.334717   -1.932122   -0.667190
O       1.706728   -2.859755   -1.346217
C       1.270453   -1.913721    0.833611
C       0.776691   -3.191039    1.503371
C       2.215082   -2.803885    1.608396
C       0.832639   -0.520944    1.256677
H       0.903456    2.027619   -0.019305
H      -0.629781    1.874755   -0.889617
H      -0.616751    1.905965    0.878879
H      -0.938587   -0.425776    0.035228
H       0.260048   -0.676148   -2.092068
H       1.717610    0.036831   -1.398112
H       0.138897   -3.071752    2.372918
H       0.521648   -4.013461    0.844083
H       2.931033   -3.365923    1.018014
H       2.583521   -2.424891    2.555810
H       1.708463    0.114029    1.449645
H       0.221891   -0.513930    2.164385
