17

C       0.299839    1.539749    0.094434
C      -0.319265    0.190064   -0.288944
C       0.477813   -0.506997   -1.361857
O       1.720043   -1.093491   -0.977891
C       0.671546   -1.976969   -1.417105
C       0.102340   -2.868533   -0.448414
C      -0.384422   -3.653873    0.334703
C      -0.929688   -4.529442    1.220205
C      -1.414906   -5.307422    2.006220
H       1.318817    1.402613    0.468066
H       0.344930    2.217171   -0.765336
H      -0.287091    2.030296    0.875967
H      -0.383333   -0.461556    0.587650
H      -1.342824    0.333941   -0.657865
H       0.521042    0.011419   -2.323265
H       0.854795   -2.424593   -2.394223
H      -1.840426   -5.990971    2.698410
