16

C      -0.125082    1.494597    0.069576
C      -0.029655    0.012325   -0.050644
C       0.175201   -0.811839   -1.133243
N       0.412042   -0.430061   -2.472876
C       0.201110   -2.170572   -0.670740
C       0.015991   -2.117263    0.688795
O      -0.060480   -3.071340    1.653532
N      -0.110694   -0.820203    1.071773
H      -0.305077    1.946541   -0.911214
H      -0.959540    1.800596    0.714487
H       0.784481    1.961839    0.473608
H       0.188870    0.544821   -2.633960
H      -0.131851   -0.987481   -3.122102
H       0.356596   -3.055492   -1.268582
H       0.074420   -3.927782    1.237642
H      -0.277207   -0.523698    2.016912
