18

C       0.106568    1.491673    0.023529
C       0.040281    0.038114    0.029501
C      -0.013446   -1.165358    0.045264
C      -0.058997   -2.600047    0.023977
N      -0.570292   -3.304642    1.220557
C      -1.363753   -3.371333   -0.025538
C      -2.693171   -2.645334    0.010312
C      -1.342814   -4.606866   -0.767853
C      -1.339757   -5.647822   -1.371388
H       1.100559    1.841471   -0.276244
H      -0.621047    1.922131   -0.673462
H      -0.103144    1.900714    1.017950
H       0.763772   -3.074445   -0.506040
H      -0.052150   -4.171897    1.343158
H      -2.594009   -1.717547    0.575660
H      -3.029288   -2.410179   -1.003728
H      -3.451450   -3.271930    0.488701
H      -1.335627   -6.563742   -1.908754
