22

C       0.938160    0.072852   -1.219149
C       0.198417   -0.454410    0.018766
C      -1.316862   -0.551104   -0.128896
C      -1.876161   -1.436655   -1.232601
C      -2.003242   -1.851036    0.211379
O      -1.216462   -2.894491    0.711048
N      -2.170533    0.586802    0.166529
C      -2.043670    1.268697    1.448821
C      -1.653841    1.948668    0.181264
H       2.013569    0.141911   -1.025393
H       0.797543   -0.595025   -2.074704
H       0.589253    1.064168   -1.523305
H       0.573305   -1.451416    0.265834
H       0.438084    0.172074    0.887317
H      -2.763416   -1.091391   -1.749751
H      -1.161209   -1.986085   -1.836676
H      -2.984623   -1.755399    0.673010
H      -1.500703   -3.709239    0.284547
H      -2.980020    1.510603    1.944555
H      -1.239233    0.975000    2.120475
H      -0.591764    2.116111    0.026716
H      -2.299165    2.699020   -0.268362
