18

C      -0.143416    1.555107    0.761603
C      -0.097113    0.109102    0.303575
C       1.045855   -0.344072   -0.652343
O       2.009117   -0.171290    0.460610
C       0.843537   -0.887162    1.040318
C       0.874938   -1.820710   -0.201563
C      -0.282005   -2.708493   -0.613855
O      -0.310444   -3.797163    0.301403
H       0.860391    1.916162    0.992315
H      -0.576869    2.195387   -0.014554
H      -0.767277    1.658760    1.656116
H      -1.093385   -0.271868    0.064319
H       1.334750    0.052627   -1.627493
H       0.891208   -1.147252    2.098009
H       1.817514   -2.369934   -0.255750
H      -1.239243   -2.168655   -0.613553
H      -0.108476   -3.058301   -1.644619
H      -0.993963   -4.410957    0.016956
