21

C       0.061827    1.497577   -0.136336
N      -0.000551    0.044496    0.027148
C       0.755519   -0.350199    1.214926
C      -1.340593   -0.522177   -0.041780
C      -2.166626    0.047323   -1.196658
C      -1.422146   -2.076894    0.027622
O      -2.251289   -1.992621    1.227088
C      -2.164613   -0.615941    1.256241
N      -2.607141    0.213452    2.086918
H       1.112581    1.800728   -0.105508
H      -0.335717    1.799875   -1.106168
H      -0.475249    2.048570    0.653110
H       0.348600    0.074761    2.147148
H       0.782644   -1.436722    1.321269
H       1.788491   -0.007823    1.104288
H      -1.604488   -0.015390   -2.133751
H      -3.092066   -0.524071   -1.307131
H      -2.446379    1.086812   -1.015536
H      -1.962125   -2.560018   -0.790104
H      -0.490546   -2.607332    0.227334
H      -3.106985   -0.247310    2.850307
