21

C      -0.064470    1.492889    0.064970
C       0.047651   -0.020144   -0.026248
C       0.707771   -0.552011   -1.323095
C       0.081189   -1.964221   -1.451197
C      -1.060544   -1.950843   -0.393010
C      -0.665677   -2.648668    0.919023
C       0.396109   -1.838269    1.621873
C       0.739827   -0.628397    1.184270
O      -1.277095   -0.565487   -0.121010
H       0.929617    1.950900    0.073169
H      -0.621214    1.881630   -0.792109
H      -0.586703    1.786613    0.979975
H       0.424606    0.085984   -2.166276
H       1.798787   -0.573584   -1.264031
H      -0.316819   -2.131531   -2.454618
H       0.805397   -2.757435   -1.249495
H      -1.997967   -2.356312   -0.782201
H      -1.545067   -2.764544    1.567521
H      -0.302077   -3.664004    0.712391
H       0.870642   -2.269819    2.499568
H       1.523501   -0.049290    1.665532
