18

C      -0.006953   -1.197685   -0.153039
C       0.011882    0.001671   -0.055188
C      -0.000567    1.437058    0.047741
N       0.426027    2.219143   -1.155615
C       1.303944    2.174008    0.024800
C       1.422876    3.464487    0.828290
C       0.530043    3.467968    2.084822
C      -0.855017    2.939614    1.801422
C      -1.102877    2.027515    0.863172
H      -0.013971   -2.256493   -0.232920
H       0.761807    1.563927   -1.859814
H       2.196554    1.558775   -0.045672
H       2.467197    3.632272    1.110873
H       1.124632    4.292094    0.177542
H       0.991639    2.864677    2.880239
H       0.467700    4.485181    2.485907
H      -1.674573    3.330589    2.398721
H      -2.107910    1.663328    0.674535
