17

O       0.094981   -0.003064   -0.046768
C       0.042487    1.199106   -0.028098
N      -0.997660    2.096089   -0.031541
C      -0.159038    3.299097    0.002606
C       1.072417    2.353177    0.008561
C       2.157980    2.300532    1.112336
C       3.157523    1.796615    0.035737
C       2.195701    2.335841   -1.057991
H      -1.997999    1.965127   -0.050747
H      -0.249765    3.935819   -0.884283
H      -0.280867    3.906703    0.906037
H       2.410035    3.303906    1.469529
H       1.962233    1.654824    1.971423
H       4.172330    2.198530    0.059912
H       3.203394    0.705737    0.018771
H       2.030305    1.718467   -1.943868
H       2.459443    3.350143   -1.373433
