19

C       0.182324    1.578033   -0.000671
C       0.065101    0.066010   -0.003711
O      -1.253722   -0.381362    0.301815
C       0.561341   -0.748552   -1.237543
C       1.325450   -1.746293   -0.307097
C       2.804982   -2.062453   -0.534846
O       3.355990   -2.725484    0.583758
C       1.085288   -0.754826    0.831929
O       1.604430   -0.598659    1.906195
H       1.188414    1.899442   -0.286864
H      -0.538220    2.012650   -0.700240
H      -0.019551    1.975921    1.000233
H      -1.475181   -0.061380    1.184441
H      -0.243875   -1.169629   -1.838990
H       1.233746   -0.166895   -1.873399
H       0.770489   -2.675890   -0.145954
H       2.931102   -2.728053   -1.395404
H       3.346913   -1.128696   -0.763589
H       3.178396   -2.169871    1.354185
