19

C       0.032021    1.542621    0.027616
C       0.002394    0.050792    0.004183
C       0.934701   -0.991318   -0.559521
C       0.556311   -1.007171    0.924416
C      -0.780896   -1.817287    0.969841
C      -0.644347   -3.241286    0.495664
C      -0.313192   -3.227473   -0.802674
C      -0.213321   -1.793608   -1.255818
C      -1.148068   -0.986219   -0.300277
H       1.031501    1.908575    0.287484
H      -0.231738    1.966842   -0.948710
H      -0.670687    1.948598    0.765264
H       1.962504   -0.882663   -0.882782
H       1.303307   -0.910285    1.702424
H      -1.373980   -1.634160    1.866231
H      -0.707423   -4.113628    1.135722
H      -0.057606   -4.086528   -1.412046
H      -0.305713   -1.589614   -2.322892
H      -2.184265   -0.773283   -0.562255
