20

C      -0.138394    1.498148   -0.028105
C       0.131167   -0.012156   -0.040844
C       0.778348   -0.486608   -1.305144
C       0.070974   -0.821682   -2.625600
C       0.916011   -1.860202   -1.896479
C       2.121150   -1.266167   -2.653109
C       1.202138   -0.428313   -3.607028
C       1.850133    0.822897   -2.989864
N       2.132093   -0.008333   -1.758868
H       0.793644    2.057551   -0.154656
H      -0.819046    1.787323   -0.835716
H      -0.588137    1.807067    0.920241
H       0.775213   -0.274115    0.807783
H      -0.807180   -0.564442    0.097025
H      -1.001889   -0.783869   -2.759368
H       0.684392   -2.840415   -1.502161
H       3.070179   -1.733585   -2.909167
H       1.073670   -0.605027   -4.674938
H       2.798760    1.095981   -3.462929
H       1.241602    1.716976   -2.824707
