23

O      -0.109306    1.455922    0.070889
C       0.011394    0.039899    0.009922
C       0.791848   -0.524656    1.203368
C       0.824957   -2.061810    1.173292
C      -0.580860   -2.636035    1.094615
C      -0.808205   -4.064908    1.509269
C      -1.304133   -2.937847    2.387122
C      -1.383591   -2.068931   -0.065979
C      -1.404654   -0.532545   -0.033956
H       0.776277    1.825293    0.148276
H       0.534106   -0.253674   -0.918743
H       1.814107   -0.123080    1.204369
H       0.307902   -0.176283    2.124430
H       1.402367   -2.396059    0.299123
H       1.347335   -2.447807    2.055726
H      -1.543682   -4.646722    0.962701
H       0.044165   -4.641970    1.853790
H      -0.786101   -2.756418    3.323517
H      -2.373942   -2.760858    2.433252
H      -0.938544   -2.407670   -1.012811
H      -2.406867   -2.460128   -0.048037
H      -1.941720   -0.182182    0.856287
H      -1.931492   -0.130264   -0.905358
