18

O      -0.138085    1.420946   -0.181193
C       0.001697    0.038526   -0.024481
C      -0.362915   -0.628858    1.290452
C      -0.905461    0.190424    2.427950
O      -2.030524   -0.434924    3.073717
C      -3.184854   -0.634901    2.380940
N      -3.514277   -0.504937    1.170685
C      -2.618106   -0.078978    0.097868
C      -1.260456   -0.767107    0.071291
H       0.639747    1.847394    0.193553
H       0.830783   -0.396446   -0.581321
H       0.220111   -1.498116    1.579601
H      -0.167813    0.300716    3.227404
H      -1.187898    1.191669    2.091100
H      -3.932720   -0.985450    3.093693
H      -3.129740   -0.292006   -0.846439
H      -2.490395    1.007882    0.123542
H      -1.248509   -1.733937   -0.421866
