22

C      -0.168019    1.534244    0.120922
C      -0.022518    0.013357    0.024958
C       0.723069   -0.435149   -1.235740
C       0.865307   -1.955517   -1.326679
C       1.589556   -2.427341   -2.547407
N       2.075256   -1.708118   -3.474574
C       2.684690   -2.626109   -4.447252
C       2.435333   -4.041117   -3.861973
O       1.720431   -3.784009   -2.634763
H       0.811552    2.024799    0.136828
H      -0.721140    1.933272   -0.736564
H      -0.703128    1.828653    1.029134
H       0.503948   -0.361137    0.913338
H      -1.017353   -0.451940    0.045944
H       0.204102   -0.068845   -2.128771
H       1.719004    0.021223   -1.264853
H       1.393816   -2.351920   -0.449265
H      -0.119394   -2.441813   -1.312355
H       2.221725   -2.491543   -5.430733
H       3.750646   -2.400338   -4.558825
H       1.810997   -4.674965   -4.498426
H       3.353916   -4.583088   -3.618868
