15

O      -0.056507   -0.052947   -0.059690
C       0.068399    1.136002   -0.163881
C       1.393383    1.886848    0.028411
N       1.565903    2.845390   -1.067192
C       1.898752    4.179952   -0.546815
C       1.645579    4.051209    0.923699
C       1.371329    2.784989    1.256682
C       1.111697    2.296393    2.564354
N       0.900431    1.879450    3.623886
H      -0.770470    1.811051   -0.443321
H       2.187176    1.129798    0.105823
H       2.216045    2.516807   -1.765840
H       2.944307    4.475917   -0.734458
H       1.269443    4.958556   -1.001575
H       1.700159    4.882179    1.614898
