17

O       0.275839    1.108425   -0.700698
C       0.071051    0.006606    0.171356
C      -1.302101   -0.499143    0.161236
C      -2.451686   -0.857680    0.157365
C      -3.825668   -1.358925    0.126151
C      -3.852046   -2.895036   -0.151822
O      -5.165243   -3.385758   -0.246502
C      -4.559065   -1.073960    1.364213
C      -5.189591   -0.910485    2.374619
H      -0.384845    1.774722   -0.484236
H       0.760856   -0.773842   -0.168390
H       0.356922    0.253054    1.206438
H      -4.362069   -0.883936   -0.707183
H      -3.369421   -3.079806   -1.114710
H      -3.268141   -3.400015    0.630505
H      -5.600198   -3.208185    0.596480
H      -5.733226   -0.730605    3.269391
