20

C       0.711309    1.698872    0.208316
C       1.192629    0.394179   -0.324682
N      -0.179195    0.544270    0.149669
C      -0.494596   -0.083089    1.399910
C      -1.879238    0.030330    1.986985
C      -3.013229    0.452335    1.069510
O      -2.983211   -0.406194   -0.062306
C      -2.257738   -1.591151    0.235074
C      -1.388479   -1.297135    1.444749
H       1.084596    2.005160    1.184493
H       0.469619    2.516892   -0.464258
H       1.309116    0.241312   -1.393801
H       1.887261   -0.170416    0.295661
H       0.310679   -0.088973    2.142694
H      -1.985770    0.215693    3.049768
H      -3.969616    0.363955    1.610469
H      -2.922617    1.480353    0.701145
H      -2.938385   -2.425402    0.471527
H      -1.688372   -1.858445   -0.662213
H      -1.121023   -2.122313    2.094961
