21

C      -0.075117    1.588867   -0.056489
C       0.002961    0.060623   -0.007292
C      -1.389661   -0.601556    0.136369
C      -1.108881   -1.800839    1.045233
O      -0.160688   -1.317129    1.986479
C       0.746123   -0.462953    1.276267
C       1.950084   -1.201082    0.750825
C       1.984692   -1.231262   -0.579196
C       0.827381   -0.501466   -1.209452
H       0.925831    2.032570   -0.102247
H      -0.628672    1.928998   -0.938939
H      -0.579734    1.986938    0.830479
H      -2.079443    0.083302    0.640862
H      -1.832208   -0.878726   -0.824292
H      -1.981460   -2.154418    1.601088
H      -0.700673   -2.646768    0.468879
H       1.015587    0.336595    1.976101
H       2.669167   -1.665374    1.416279
H       2.750220   -1.719959   -1.173961
H       0.234513   -1.170766   -1.846501
H       1.170683    0.307993   -1.866770
