18

C       0.132401    1.427211    0.113157
O       0.105804    0.006914   -0.001545
C       0.632430   -0.694873    1.008641
C       0.656456   -2.037529    1.213166
C       1.376120   -2.217176    2.449091
N       1.567938   -3.458047    3.078542
C       1.733451   -0.980508    2.896881
C       2.448241   -0.467332    4.090983
O       1.259544   -0.025630    1.994599
H       1.159502    1.802914    0.161536
H      -0.358054    1.804616   -0.784707
H      -0.410142    1.763791    1.002911
H       0.214842   -2.794353    0.586703
H       1.793969   -4.190458    2.416847
H       2.286117   -3.429040    3.791174
H       3.264021    0.213627    3.817996
H       1.789950    0.073662    4.784353
H       2.889318   -1.299620    4.648318
