13

O       0.084347    1.337124    0.007232
C      -0.028397    0.005553    0.001032
C      -1.199687   -0.677624    0.003642
O      -2.395969   -0.027609    0.013170
N      -1.199271   -2.037685   -0.003279
C      -0.081808   -2.689522   -0.012405
C       1.221215   -2.047401   -0.015879
N       2.331060   -2.661333   -0.024819
O       1.155842   -0.645999   -0.008411
H       1.024179    1.560842    0.003351
H      -3.069297   -0.719295    0.013020
H      -0.091363   -3.773960   -0.017896
H       3.120971   -2.017176   -0.025646
