23

C      -0.288583    1.097458    0.225378
O      -0.352653   -0.217413   -0.281233
C       0.596267   -0.538047   -1.289094
C       0.144229    0.090926   -2.604295
C       2.107684   -0.547355   -0.868468
C       1.754158   -1.713140    0.103021
C       1.008547   -2.050186   -1.232126
C       0.120761   -3.232634   -1.514149
C       2.336291   -1.644783   -1.946640
H       0.699053    1.325451    0.652223
H      -0.519694    1.858073   -0.534180
H      -1.036564    1.168323    1.019475
H       0.160576    1.183533   -2.539749
H       0.761058   -0.190058   -3.457981
H      -0.886976   -0.211927   -2.811160
H       2.749963    0.311629   -0.668104
H       2.581831   -2.379340    0.360474
H       1.134100   -1.480082    0.965857
H      -0.750334   -3.226686   -0.850708
H      -0.242572   -3.219599   -2.547967
H       0.657697   -4.174959   -1.360421
H       2.298409   -1.362263   -2.999005
H       3.184537   -2.307660   -1.758357
