18

C      -0.010965    1.381222    0.219360
O      -0.063308    0.034205   -0.210193
C      -1.330208   -0.580042   -0.045025
C      -1.265715   -1.941993   -0.750483
C      -0.921469   -1.783351   -2.243664
C      -0.861588   -3.066930   -2.937121
N      -0.819583   -4.089810   -3.473150
C      -1.698683   -0.737132    1.367882
C      -1.994659   -0.874914    2.524482
H       0.999531    1.739312    0.012499
H      -0.732561    2.005853   -0.329057
H      -0.214276    1.471085    1.294117
H      -2.101837    0.040774   -0.535763
H      -0.508004   -2.556553   -0.256870
H      -2.227686   -2.447776   -0.633040
H      -1.668990   -1.154519   -2.742448
H       0.041054   -1.274201   -2.344549
H      -2.258724   -0.995942    3.546474
