20

C       0.015283    1.580612    0.023191
C       0.045653    0.054732   -0.003347
C       0.618982   -0.501724   -1.309818
C       0.896572   -1.976112   -1.200132
C       1.162241   -2.575706   -0.033752
C       1.471671   -4.036628    0.118353
C       1.227375   -1.765810    1.223370
O       1.627831   -2.232470    2.277936
N       0.851056   -0.449031    1.106402
H       1.025393    1.990225   -0.077068
H      -0.599286    1.964348   -0.796519
H      -0.413260    1.950128    0.961141
H      -0.989375   -0.316090    0.090833
H      -0.083051   -0.301947   -2.126670
H       1.548834    0.030903   -1.562966
H       0.911602   -2.555585   -2.120830
H       2.455081   -4.175268    0.577705
H       0.753245   -4.521326    0.787939
H       1.451433   -4.546577   -0.848121
H       0.779230    0.026940    1.995314
