16

N       0.061993    1.044978    0.725056
C       0.003568    0.013828   -0.161858
O       0.876964   -0.257276   -0.962150
C      -1.276459   -0.769349   -0.046137
C      -2.386484   -0.995000   -1.135542
C      -2.937552   -1.781990    0.107830
C      -1.462754   -2.293408    0.287896
C      -2.458932   -0.566336    0.905365
O      -2.778958    0.175596    1.787981
H       0.880614    1.631443    0.735117
H      -0.690390    1.220432    1.374714
H      -2.943270   -0.119314   -1.472438
H      -2.067003   -1.627021   -1.965658
H      -3.858030   -2.354843    0.182539
H      -1.116603   -2.962954   -0.501063
H      -1.157392   -2.629908    1.279790
