17

N      -0.350802   -0.467605    1.849037
C      -0.216695    0.352101    1.045438
C      -0.044607    1.394115    0.031286
C       1.338639    2.026129    0.074404
C       1.579820    3.477110   -0.215448
C       0.424969    4.411424   -0.116556
C      -0.050829    4.425886    1.130294
C       0.762647    3.508884    2.016294
N       1.804950    2.916357    1.142895
H      -0.195329    0.940810   -0.955477
H      -0.830311    2.143630    0.160613
H       2.119642    1.331600   -0.229806
H       2.453703    3.762801   -0.796388
H       0.052834    4.986715   -0.955066
H      -0.904570    4.991931    1.484576
H       1.256670    4.056803    2.828588
H       0.162350    2.723104    2.492892
