20

C       0.122888    1.528451    0.174981
C       0.064921    0.017893   -0.078655
C      -1.353731   -0.539913    0.004816
C      -1.610782   -2.076387   -0.124653
C      -2.592106   -2.032612    1.091072
C      -2.526684   -3.086817    2.186890
C      -2.017063   -0.637660    1.391079
O      -1.956970    0.028654    2.386942
H       1.152664    1.895786    0.129552
H      -0.459733    2.076161   -0.574441
H      -0.285896    1.768566    1.159899
H       0.481726   -0.216242   -1.066553
H       0.695506   -0.503374    0.652923
H      -2.017808    0.014584   -0.672101
H      -2.020171   -2.425865   -1.073451
H      -0.710710   -2.653539    0.108455
H      -3.623714   -1.915104    0.734074
H      -1.500314   -3.217073    2.545260
H      -3.141408   -2.790366    3.042023
H      -2.885798   -4.056361    1.827488
