23

C       0.673307    1.312510   -0.245025
C       0.145951   -0.082521    0.042322
O       0.906414   -0.640083    1.105033
C       0.512271   -1.937271    1.472866
O       0.743979   -2.877341    0.446680
C       2.053595   -3.450369    0.598357
C       2.635968   -2.881215    1.902534
C       1.379515   -2.397874    2.651389
C       1.619222   -1.359384    3.742794
H       1.725119    1.272014   -0.542763
H       0.101971    1.775297   -1.055438
H       0.593717    1.947053    0.642484
H      -0.918102   -0.044172    0.329786
H       0.220828   -0.722634   -0.846233
H      -0.569743   -1.954168    1.671603
H       1.938324   -4.540420    0.639986
H       2.664502   -3.208547   -0.278503
H       3.208455   -3.623830    2.463358
H       3.291320   -2.029478    1.697502
H       0.872032   -3.270735    3.081324
H       2.095138   -0.466839    3.330664
H       0.677776   -1.051906    4.210164
H       2.262994   -1.766047    4.529435
