17

N      -0.062060    1.451832    0.027316
C      -0.024748   -0.006858    0.007423
C       0.443309   -0.597409    1.386223
C      -0.861094   -1.342302    1.739515
C      -1.235930   -2.086140    0.437531
C      -1.472008   -0.613677    0.043872
O      -1.872984   -0.341576    1.406697
C       0.751716   -0.530566   -1.130464
N       1.353251   -0.898301   -2.048238
H       0.875088    1.820658    0.163212
H      -0.383274    1.807352   -0.869488
H       1.315763   -1.248702    1.307437
H       0.645425    0.212977    2.088464
H      -0.963567   -1.771747    2.735110
H      -0.481737   -2.674789   -0.088949
H      -2.176980   -2.626764    0.533734
H      -2.172813   -0.278191   -0.720130
