20

C       0.346782    1.824567   -0.066464
C       0.062968    0.319411    0.009292
C       0.614998   -0.415031   -1.209031
C      -0.018547   -1.684193   -1.723683
C      -0.138555   -0.404346   -2.514054
C       0.708027   -0.296043    1.260413
C      -0.071422   -1.385707    1.970837
O       1.801054    0.059881    1.638473
H       1.423905    2.004629   -0.031745
H      -0.052571    2.243158   -0.994447
H      -0.106427    2.357108    0.775574
H      -1.020116    0.144741    0.048186
H       1.698081   -0.359629   -1.282270
H       0.627578   -2.469098   -2.100718
H      -0.912147   -2.048535   -1.226736
H      -1.107130    0.085073   -2.535637
H       0.426530   -0.308876   -3.434551
H      -1.000161   -0.970179    2.380102
H      -0.360552   -2.170744    1.263874
H       0.525487   -1.810956    2.778705
