21

C      -0.272868    1.328484   -0.050243
O       0.204580    0.000104    0.109644
C       0.773026   -0.511797   -1.036501
C      -0.046768   -0.999720   -2.198427
C       0.853800   -1.970403   -1.463581
C       2.316580   -1.791614   -1.898111
C       2.709193   -2.086853   -3.339580
C       2.221803   -0.278673   -1.443391
O       2.387564    0.738470   -2.411407
H       0.534202    2.016522   -0.333968
H      -1.058339    1.380061   -0.816784
H      -0.687157    1.635582    0.912768
H      -1.100118   -1.113079   -1.962139
H       0.160032   -0.683501   -3.215689
H       0.450903   -2.837564   -0.954975
H       2.983627   -2.330821   -1.217614
H       2.088855   -1.538513   -4.052752
H       3.752511   -1.806928   -3.527376
H       2.611990   -3.155706   -3.557393
H       2.845981   -0.092349   -0.559738
H       3.326337    0.818007   -2.609220
