14

O      -0.089137    1.234468   -0.111218
C      -0.003110   -0.098799   -0.064337
N      -0.176696   -0.833948   -1.149202
N      -0.062661   -2.094718   -0.596761
C       0.216908   -3.411167   -1.116456
C       0.289658   -4.172357    0.243686
O       0.520553   -3.168600    1.278105
C       0.236269   -1.994624    0.701541
N       0.260539   -0.753449    1.121298
H       0.078288    1.551982    0.784329
H      -0.580901   -3.794367   -1.756872
H       1.162582   -3.434828   -1.671372
H      -0.657424   -4.670684    0.468289
H       1.104955   -4.893684    0.294103
