18

O      -0.089211   -0.017571   -0.120763
C      -0.000288    1.191962   -0.080833
N       1.165701    1.885524    0.061144
C       2.434178    1.301002    0.222262
C       3.380898    2.208143    0.477940
C       2.792718    3.597398    0.528720
C       3.001676    4.496176   -0.729179
C       1.619507    4.033080   -1.276994
C       1.312411    3.341183    0.084228
H      -0.871969    1.870811   -0.157716
H       2.502386    0.226679    0.137464
H       4.424787    1.983141    0.646340
H       2.965859    4.091907    1.490210
H       3.031437    5.561018   -0.484048
H       3.870372    4.257338   -1.346300
H       0.927350    4.826097   -1.568604
H       1.688785    3.313193   -2.095164
H       0.518554    3.806829    0.670430
