20

C       0.047502    1.670705   -0.010819
C      -0.117737    0.146713   -0.011778
C       0.663683   -0.515556   -1.142870
C       2.216933   -0.623716   -1.131004
N       2.160302   -2.098456   -1.487456
C       1.502929   -2.827633   -0.380696
C       1.667125   -2.614944    1.084485
O       2.087694   -1.635416    1.654783
C       0.665883   -2.031285   -1.339861
H       1.097139    1.953882    0.123334
H      -0.297583    2.110537   -0.953534
H      -0.524304    2.129896    0.800958
H       0.202694   -0.253133    0.952947
H      -1.180102   -0.107904   -0.124963
H       0.352845   -0.064363   -2.092543
H       2.709556   -0.088049   -1.943726
H       2.718806   -0.421019   -0.187150
H       1.471588   -3.892437   -0.609031
H       1.362468   -3.513885    1.668351
H      -0.000292   -2.572400   -2.007318
