21

C       0.042682    1.437200    0.022318
C      -0.036518   -0.062000    0.010470
O       0.948442   -0.662485   -0.819896
C       0.389029   -1.874925   -1.327825
C      -0.733055   -2.233886   -0.349436
C      -1.657193   -3.350865   -0.784779
C      -0.126090   -2.299342    1.096757
C      -0.445127   -0.816584    1.264572
C      -1.314031   -0.826913   -0.002920
H       1.025901    1.766323    0.373812
H      -0.110793    1.841908   -0.982935
H      -0.716280    1.858990    0.687445
H      -0.004910   -1.720208   -2.345788
H       1.180904   -2.631451   -1.369867
H      -1.111691   -4.296502   -0.884046
H      -2.460220   -3.505650   -0.057328
H      -2.120217   -3.129638   -1.753483
H      -0.738658   -2.922229    1.754727
H       0.922490   -2.606167    1.180839
H      -0.624689   -0.300147    2.201636
H      -2.307095   -0.445056   -0.206308
