14

C       0.131332    1.489944    0.007912
C       0.018007   -0.008050    0.001493
O       0.959929   -0.769488   -0.011816
C      -1.430859   -0.564633    0.012817
O      -2.389034    0.170464    0.025787
N      -1.417933   -1.940076    0.004991
C      -2.484177   -2.834059    0.010327
N      -3.700499   -2.481165    0.024191
H       1.180555    1.784371   -0.001705
H      -0.395332    1.904079   -0.857682
H      -0.376652    1.895056    0.888823
H      -0.480284   -2.322555   -0.006179
H      -2.117147   -3.867896    0.000871
H      -4.297582   -3.306835    0.025317
