20

C      -0.190474    1.592941    0.136443
C       0.001694    0.094305    0.104944
C      -1.239910   -0.755460   -0.170472
C      -0.893659   -2.154539    0.376711
C      -0.040637   -1.865511    1.629958
C       0.782975   -0.624873    1.248175
C       1.820564   -0.864253    0.172689
N       2.947096   -1.417885    0.147195
O       1.094179   -0.268829   -0.834008
H       0.755299    2.103323    0.338813
H      -0.573857    1.953724   -0.823570
H      -0.908718    1.869532    0.914934
H      -2.085159   -0.328765    0.383576
H      -1.503293   -0.750175   -1.231889
H      -1.779844   -2.754829    0.596365
H      -0.300906   -2.706069   -0.360128
H      -0.685784   -1.621476    2.482025
H       0.593582   -2.705612    1.923526
H       1.124492   -0.027319    2.093980
H       3.347740   -1.395054   -0.792708
