19

O      -0.003878    1.443457    0.099928
C       0.047081    0.027864    0.033151
C      -1.386995   -0.488405    0.009901
C      -1.453499   -2.006672   -0.046273
C      -1.136366   -2.799472    1.240980
O      -2.425562   -3.446305    1.227029
C      -2.850570   -2.703474    0.057043
C      -4.015836   -1.866550    0.295718
C      -4.983378   -1.177157    0.480274
H       0.897442    1.777424    0.125738
H       0.579174   -0.311446   -0.871426
H       0.583810   -0.392665    0.900132
H      -1.912173   -0.119303    0.897394
H      -1.900637   -0.057604   -0.857248
H      -0.900247   -2.379189   -0.913341
H      -0.316261   -3.524193    1.181083
H      -1.002512   -2.181236    2.138782
H      -3.061741   -3.387575   -0.775130
H      -5.839013   -0.570400    0.647588
