18

C       0.056267    1.547794   -0.002552
C       0.069948    0.038393    0.070135
O      -1.102473   -0.556034   -0.412910
C       1.332951   -0.823080   -0.214670
C       2.518630   -0.135300    0.424265
O       3.571828    0.311440    0.063758
N       1.899908   -0.156383    1.690820
C       0.676067   -0.781954    1.172252
C      -0.023719   -1.849991    1.954704
H       0.966992    1.992224    0.402058
H      -0.029186    1.874601   -1.045833
H      -0.805214    1.940862    0.546697
H      -1.227266   -0.276288   -1.326698
H       1.315058   -1.599961   -0.965910
H       1.920319    0.625688    2.336540
H      -0.475214   -1.433329    2.862716
H      -0.820713   -2.294383    1.356669
H       0.682321   -2.629281    2.256093
