19

O       0.102134    0.037125    0.279951
C       0.041359    1.217396   -0.016016
C      -1.291659    1.979290   -0.071525
N      -1.229690    3.442002   -0.183928
C      -0.053040    4.005873    0.481828
C       1.217780    3.451099   -0.150880
C       2.548906    3.280407    0.635782
C       2.479514    1.759629    0.299748
N       1.142063    1.978806   -0.275124
H      -1.889989    1.576973   -0.894277
H      -1.817225    1.700093    0.850651
H      -1.218024    3.711726   -1.162185
H      -0.087167    5.098415    0.419493
H      -0.095638    3.732926    1.544604
H       1.369757    3.920757   -1.133150
H       3.410119    3.825893    0.248409
H       2.442539    3.487575    1.703278
H       3.213236    1.417551   -0.436838
H       2.468713    1.061916    1.140607
