20

N       1.209772   -0.863419   -1.339015
C       0.935089    0.192963   -0.956057
C       0.554322    1.522660   -0.506490
C       0.509459    1.816132    1.034878
C       2.063461    1.706732    1.005271
C       1.681588    2.578863   -0.228148
C       0.649017    3.349423    0.684666
C      -0.532276    4.075868    0.027211
C       1.198576    4.291069    1.763170
H      -0.296921    1.854851   -1.095913
H      -0.177747    1.355088    1.746196
H       2.625436    2.173921    1.808948
H       2.466505    0.718169    0.782302
H       2.351417    3.001046   -0.979066
H      -1.035213    3.527821   -0.769972
H      -1.288750    4.314390    0.782861
H      -0.193477    5.026973   -0.397954
H       1.506325    5.238614    1.307292
H       0.411087    4.525707    2.487861
H       2.050903    3.904908    2.320690
