19

C      -0.220150    1.456997    0.017552
O       1.104784    0.937326   -0.054452
C      -0.001419   -0.000881    0.023229
C      -0.072235   -0.751440    1.299023
C      -0.107629   -2.082510    1.362269
C      -0.058887   -2.996773    0.167995
C      -0.289426   -2.296354   -1.159909
C      -1.560017   -1.519997   -1.393575
C      -0.248041   -0.785793   -1.228708
H      -0.474821    1.972141    0.944274
H      -0.589604    1.934069   -0.890321
H      -0.063184   -0.156374    2.207804
H      -0.141263   -2.565923    2.335784
H       0.924690   -3.489227    0.155580
H      -0.785456   -3.811397    0.296705
H       0.109401   -2.823612   -2.020956
H      -2.008534   -1.546145   -2.380330
H      -2.272454   -1.459168   -0.576981
H       0.184762   -0.328664   -2.112273
