15

C       0.011329    1.740321   -0.215746
C       0.052609    0.228391    0.002921
N       1.099449   -0.522266   -0.730368
C       1.615244   -1.177868    0.505780
C       0.728768   -0.244749    1.330273
O       0.619324    0.066007    2.475028
C      -1.330049   -0.387784   -0.129512
O      -1.549228   -1.389586   -0.763045
H       1.005312    2.166673   -0.065414
H      -0.312314    1.976560   -1.234139
H      -0.680060    2.209947    0.490918
H       0.668113   -1.191246   -1.363852
H       1.332161   -2.231401    0.632360
H       2.693929   -1.078248    0.664472
H      -2.138072    0.153078    0.406330
