19

O       0.081777    1.492261    0.073914
C       0.094538    0.069192   -0.027992
C      -1.315850   -0.517830    0.110293
C      -1.340399   -2.029434   -0.213568
C      -0.867407   -2.261815   -1.671831
C       0.316405   -1.407591   -2.040944
C       0.751172   -0.384236   -1.306946
C      -0.538756   -2.794241    0.741940
C       0.116449   -3.422295    1.530645
H      -0.368401    1.831604   -0.707974
H       0.702142   -0.254090    0.826409
H      -1.701153   -0.328496    1.115475
H      -1.979516   -0.006185   -0.599452
H      -2.376602   -2.380707   -0.131144
H      -0.627238   -3.320690   -1.817619
H      -1.701783   -2.046942   -2.355151
H       0.829841   -1.665984   -2.964449
H       1.623826    0.188622   -1.611448
H       0.693212   -3.979004    2.227027
