16

O      -0.433366    0.291341    0.405597
C      -0.138605    1.372827    0.013531
O      -0.960279    2.287594   -0.622887
C       0.126241    3.253381   -0.760009
C       0.260086    4.230804    0.429554
C      -0.758677    4.160527    1.589001
C       0.203044    3.135523    2.259881
N       1.196742    3.276079    1.134186
C       1.083281    2.300232   -0.009196
H       0.223111    3.598194   -1.787570
H       0.673455    5.207899    0.164204
H      -0.876105    5.099478    2.131765
H      -1.742239    3.776324    1.315874
H       0.640771    3.463490    3.206119
H      -0.192112    2.125155    2.393817
H       2.029182    1.891521   -0.363223
