19

C       0.114385    1.480190    0.019154
C       0.000400   -0.047167    0.046596
C       0.575406   -0.597292    1.360261
O      -1.409508   -0.315765    0.000855
C       0.639163   -0.632132   -1.210396
C       2.089840   -1.017621   -1.327226
C       1.025169   -2.087807   -1.344387
H       1.162017    1.791293    0.059606
H      -0.332995    1.876830   -0.896573
H      -0.415013    1.914923    0.871868
H       0.023288   -0.162208    2.197306
H       0.468278   -1.685092    1.423987
H       1.634243   -0.350817    1.484072
H      -1.510829   -1.262735   -0.145053
H       0.204120   -0.196368   -2.106344
H       2.607718   -0.785042   -2.251216
H       2.715364   -0.952785   -0.444084
H       0.955714   -2.732816   -0.475029
H       0.807520   -2.588562   -2.281404
