16

O       0.029845    0.003464   -0.035951
C      -0.000642    1.204316    0.019323
C      -1.270704    2.063636    0.058887
C      -0.887030    3.367666    0.760630
N      -0.114412    2.962521    1.996230
C       1.125065    3.156442    1.204348
C       0.429691    3.966063    0.105709
O       0.948215    3.154413   -0.954983
C       1.231558    2.109126    0.029966
H      -1.616818    2.242086   -0.965119
H      -2.049871    1.527385    0.604783
H      -1.728322    4.040488    0.932107
H      -0.168905    3.698732    2.695783
H       2.046091    3.410390    1.728645
H       0.487075    5.039787   -0.082013
H       2.168554    1.585147   -0.158219
