18

O       0.298962    0.814091   -0.873475
C      -0.068142    0.192112    0.350677
C      -1.370253   -0.471266    0.304777
C      -2.464850   -0.975311    0.239108
C      -3.763361   -1.580774    0.182948
C      -4.384676   -2.073662   -1.077486
C      -3.346818   -2.596242   -2.065683
C      -2.889331   -3.538878   -0.922055
N      -3.979507   -3.049770    0.001648
H      -0.427217    1.391542   -1.131291
H       0.720197   -0.539794    0.559070
H      -0.059368    0.911130    1.185542
H      -4.471800   -1.197075    0.913384
H      -5.426952   -1.861974   -1.298222
H      -3.791805   -3.131723   -2.905767
H      -2.626502   -1.866345   -2.443170
H      -3.051131   -4.597608   -1.130143
H      -1.881238   -3.392953   -0.527313
