16

C      -0.052404    1.532452    0.000599
C      -0.001729    0.037445    0.003233
C      -0.030260   -0.776379   -1.083469
N       0.038713   -2.109865   -0.629787
C       0.037540   -3.238153   -1.399483
O       0.099575   -4.369822   -0.950874
C       0.110987   -2.092698    0.777246
O       0.185769   -3.228290    1.475792
C       0.087921   -0.795907    1.185633
H       0.841868    1.961306    0.467387
H      -0.123179    1.926850   -1.016621
H      -0.915230    1.901854    0.566742
H      -0.092191   -0.566431   -2.138556
H      -0.025624   -3.025132   -2.478915
H       0.177950   -3.966895    0.833812
H       0.129533   -0.461672    2.209917
