19

C       0.472216    0.923504    0.309524
C      -0.057436   -0.270860   -0.444690
O       0.667407   -0.943846   -1.157867
C      -1.502962   -0.641011   -0.203956
C      -2.132438   -1.546831   -1.300376
C      -1.794426   -2.809110   -0.468676
O      -0.576965   -3.437762   -0.815142
C      -1.606512   -1.892264    0.780195
O      -0.529760   -2.203532    1.604907
H       1.516692    1.103827    0.053629
H      -0.129231    1.815290    0.104786
H       0.385784    0.713712    1.382767
H      -2.076777    0.232768    0.110797
H      -3.208419   -1.384189   -1.394062
H      -1.672067   -1.499423   -2.289487
H      -2.550988   -3.593936   -0.398171
H       0.002240   -2.753438   -1.196457
H      -2.513904   -1.801863    1.385107
H       0.005823   -2.826808    1.086430
