12

N      -0.030709    1.017626   -0.007368
H      -0.072902    0.052626   -0.303360
H       0.715923    1.531461   -0.451998
C      -1.264285    1.615225    0.001757
N      -1.466682    2.949061    0.171033
N      -2.796870    3.227538    0.204066
C      -3.298921    2.022267    0.055871
N      -2.428518    0.994983   -0.077620
N      -4.746581    1.818698    0.031677
O      -5.447576    2.813124    0.135389
O      -5.133671    0.667736   -0.090138
H      -0.801248    3.693976    0.302186
