20

C      -0.434287    1.366746   -0.004610
C      -0.130519   -0.105782   -0.011198
N      -0.138203   -0.853481    1.023328
O      -0.460351   -0.138314    2.188478
C       0.241001   -0.749357   -1.340272
C       0.261841   -2.283345   -1.350787
C      -1.183349   -2.618597   -1.747512
C      -1.508742   -1.490360   -2.730722
O      -0.729474   -0.360669   -2.325935
H       0.417387    1.927624    0.398524
H      -0.645786    1.715152   -1.015460
H      -1.287373    1.577384    0.644603
H      -0.449856   -0.829917    2.858438
H       1.205134   -0.326445   -1.656592
H       0.961261   -2.631958   -2.117294
H       0.554618   -2.698676   -0.387819
H      -1.292835   -3.609369   -2.194626
H      -1.832922   -2.564139   -0.869073
H      -1.232445   -1.766729   -3.758956
H      -2.566579   -1.205864   -2.730385
