19

C      -0.065074    1.521741   -0.076383
C      -0.084715    0.019766   -0.090458
C       0.829439   -0.953041   -0.903621
C       1.951493   -0.929825    0.209418
C       0.605614   -0.921083    0.943080
O      -0.031222   -0.891858    2.188896
C      -1.419941   -0.924515    1.717086
C      -1.275218   -0.945340    0.161599
C      -0.075343   -1.891490   -0.056699
H       0.961880    1.903839   -0.094800
H      -0.589575    1.939867   -0.942747
H      -0.546590    1.911917    0.827404
H       0.984210   -0.977513   -1.980550
H       2.565384   -1.830240    0.302451
H       2.568008   -0.028456    0.272570
H      -1.906147   -1.824240    2.110176
H      -1.943911   -0.039392    2.093387
H      -2.202256   -0.962704   -0.415706
H      -0.028539   -2.978830    0.001729
