17

C      -0.014804    1.377484   -0.034396
O       0.015510   -0.038636   -0.029963
C       0.644135   -0.577134    1.070310
C       2.178519   -0.416583    1.323906
C       2.062757   -1.766516    2.025905
C       0.814987   -2.123167    1.314841
N       0.752697   -1.843339    2.776259
C       0.070952   -0.533164    2.504227
H       0.997795    1.804561   -0.050955
H      -0.543696    1.682434   -0.939373
H      -0.548152    1.774735    0.840967
H       2.740546   -0.509869    0.391074
H       2.525691    0.451154    1.894920
H       2.852298   -2.409828    2.391006
H       0.439538   -3.017204    0.836131
H       0.353487    0.290572    3.170009
H      -1.009488   -0.695364    2.534555
