13

C       0.044028    1.375182    0.056694
O       0.099440   -0.059320   -0.021722
C       0.626902   -0.578448   -1.109267
N       1.083435    0.135918   -2.080819
C       1.600297   -0.570797   -3.141130
N       1.690885   -1.845449   -3.296670
O       1.191835   -2.616047   -2.234902
C       0.644121   -2.072185   -1.106485
O       0.233870   -2.776140   -0.230799
H       1.050528    1.796568    0.004298
H      -0.554221    1.776605   -0.764472
H      -0.419239    1.590989    1.018123
H       1.990670    0.009352   -3.971060
