20

O       0.219881    0.614383   -1.142180
C      -0.132423   -0.363015   -0.200239
C       0.424785   -0.256651    1.248607
C      -1.001451   -0.560052    1.788786
C      -1.580975   -0.267604    0.383002
O      -2.061831    1.068940    0.336754
N      -1.163816   -1.960322    2.137868
C      -0.955657   -2.303237    3.540647
C      -2.326185   -2.292479    2.956823
H      -0.085087    1.453814   -0.774589
H       0.069060   -1.335989   -0.652707
H       1.211691   -0.955418    1.538181
H       0.741973    0.763476    1.481222
H      -1.375064    0.124762    2.566440
H      -2.328862   -0.979726    0.015494
H      -2.365933    1.230047   -0.563140
H      -0.442790   -3.241973    3.728891
H      -0.703627   -1.498539    4.229506
H      -2.987461   -1.480974    3.256195
H      -2.828548   -3.223536    2.711110
