15

N       0.079828   -1.148013    0.010329
C       0.006110    0.008752   -0.000132
C      -0.037369    1.422771   -0.033395
C      -1.111306    2.218094    0.097453
C      -0.656757    3.625388    0.064731
C       0.516736    4.047459    0.920515
C       1.382710    2.897713    1.400374
C       1.195291    2.310328   -0.036001
N       0.704251    3.679149   -0.525522
H      -2.138648    1.904877    0.222896
H      -1.332688    4.412245   -0.253030
H       0.587310    5.074881    1.264437
H       2.408840    3.240230    1.545580
H       1.067269    2.296056    2.256883
H       2.068746    1.927687   -0.558840
