17

N      -0.215079    1.475054    0.496551
C      -0.069332    0.093403    0.527972
O       0.786161   -0.467151    1.183154
N      -1.017996   -0.584290   -0.214438
C      -1.059475   -2.009453   -0.272396
C      -1.303667   -2.803318    1.006956
C      -2.390429   -2.705259   -0.002699
C      -0.162294   -2.653623   -1.277175
O      -0.120622   -3.841012   -1.487767
H       0.593070    1.952890    0.865536
H      -0.593447    1.897298   -0.338074
H      -1.763719   -0.067538   -0.651093
H      -0.759797   -3.737254    1.081497
H      -1.368265   -2.217036    1.913981
H      -3.236476   -2.059212    0.204765
H      -2.594804   -3.571069   -0.621923
H       0.478859   -1.933561   -1.831899
