17

C       0.112873    1.421994   -0.092242
N      -0.037028   -0.010408    0.146681
C      -1.378349   -0.522163    0.028214
C      -2.139079   -0.542124   -1.390601
C      -2.117366   -2.067265   -1.311086
O      -0.739919   -2.463255   -1.183643
C      -1.442103   -2.072756   -0.006957
C      -2.247044    0.031094    1.070061
N      -2.953199    0.454655    1.881070
H       1.171301    1.682993   -0.016302
H      -0.256603    1.756492   -1.076059
H      -0.426291    1.981361    0.678377
H       0.545142   -0.547454   -0.487586
H      -3.138977   -0.108431   -1.340153
H      -1.578933   -0.108452   -2.221631
H      -2.799171   -2.788418   -1.743224
H      -1.461273   -2.754815    0.834046
