20

C       0.010551    1.511503    0.102316
C       0.091621   -0.017270   -0.007242
C       0.767477   -0.440451   -1.319633
C       0.768961   -0.619367    1.237463
C       0.770508   -2.143449    1.297353
O       2.140192   -0.159728    1.275966
C       2.614253    0.363752    2.418264
O       3.742564    0.736253    2.544246
H       1.010165    1.956753    0.102578
H      -0.541615    1.930285   -0.744270
H      -0.499802    1.823660    1.020341
H      -0.933331   -0.413545   -0.001770
H       1.815566   -0.127804   -1.333495
H       0.733905   -1.523041   -1.470736
H       0.263568    0.026175   -2.171390
H       0.254136   -0.226146    2.125841
H      -0.249749   -2.529876    1.210899
H       1.374307   -2.567461    0.491731
H       1.187442   -2.488602    2.248004
H       1.848251    0.414446    3.217980
