16

C      -0.024441    1.517405   -0.059016
C       1.536070    1.340420    0.000558
C       1.138028    0.164506    0.964321
N      -0.096676   -0.015226    0.063059
C       0.614381   -0.346679   -1.182902
C       1.685070    0.511618   -1.264370
N       2.339660    0.216944   -2.397791
N       1.740767   -0.806906   -3.071243
C       0.679218   -1.153153   -2.323118
H      -0.452084    1.990164    0.830182
H      -0.467209    1.918835   -0.971970
H       2.236775    2.134689    0.254659
H       1.790442   -0.708655    1.015478
H       0.835055    0.492180    1.963265
H       3.167316    0.627739   -2.794733
H       0.038993   -1.955390   -2.656619
