16

O       0.004207    0.047632    0.020416
C      -0.013185    1.243889    0.006805
C      -1.165319    2.261267    0.020849
C      -0.799089    3.038328    1.312155
C       0.775595    3.067849    1.291700
C       1.105444    2.298653    0.001963
O       0.726858    3.103101   -1.122635
C      -0.724976    3.111118   -1.179819
H      -2.172580    1.854496   -0.033516
H      -1.232671    4.041831    1.306735
H      -1.174911    2.518790    2.197280
H       1.175567    4.082613    1.237287
H       1.201615    2.576569    2.171710
H       2.127244    1.949257   -0.129211
H      -1.049714    2.680958   -2.135194
H      -1.082022    4.146637   -1.122035
