17

O      -0.121976    1.385344    0.064051
C       0.037457    0.011840    0.049316
C       0.886351   -0.803105   -0.970360
N       0.784974   -1.925497    0.038332
C       0.807560   -0.844379    1.097855
C      -0.676324   -2.204752   -0.026573
C      -1.305603   -0.756164   -0.034822
C      -2.210706   -0.488424    1.073950
N      -2.925896   -0.304023    1.963588
H       0.738658    1.799865    0.184656
H       0.479879   -1.022619   -1.961774
H       1.919516   -0.456006   -1.048653
H       1.832762   -0.505611    1.266324
H       0.325455   -1.099048    2.044726
H      -0.914110   -2.760400   -0.935491
H      -0.989149   -2.789070    0.839863
H      -1.823078   -0.527277   -0.970665
