19

O       0.974176   -0.231669   -1.732472
C       0.570561    0.862538   -1.391979
N       1.149444    1.658204   -0.455990
C       2.395267    1.315135    0.217948
C       3.563125    2.171554   -0.230546
C       4.979433    1.749587   -0.242422
C       5.166124    0.283708   -0.630328
C       4.344341    0.611047   -1.902526
N       4.241801    2.076716   -1.538462
H      -0.343935    1.322480   -1.814404
H       0.754895    2.573957   -0.308913
H       2.265205    1.444351    1.299533
H       2.557729    0.253921    0.032063
H       3.425663    3.223794    0.021130
H       5.764950    2.393580    0.142934
H       6.206378    0.040688   -0.853096
H       4.777961   -0.468059    0.063604
H       4.923324    0.521636   -2.823186
H       3.382354    0.110647   -2.035639
