20

C      -0.202795    1.514186    0.062809
C       0.105147    0.011007    0.087507
C       0.739285   -0.520433   -1.206081
C       2.116281    0.099664   -1.487257
C       0.751926   -2.044509   -1.435273
C      -0.590427   -2.612077   -1.610341
N       0.028090   -1.917168   -2.782695
C      -0.117877   -0.497679   -2.494635
O      -0.654927    0.345676   -3.144233
H       0.709321    2.116043    0.016133
H      -0.818941    1.772421   -0.802990
H      -0.742725    1.806673    0.968148
H       0.781567   -0.220145    0.921414
H      -0.821790   -0.537164    0.288675
H       2.787098   -0.065721   -0.636764
H       2.576025   -0.343665   -2.375747
H       2.034601    1.175771   -1.655240
H       1.640366   -2.662570   -1.372159
H      -0.680635   -3.681392   -1.772033
H      -1.455611   -2.156494   -1.136427
