17

C       0.425013    0.995927   -0.406133
N      -0.332718    0.406100    0.704656
C      -1.327141   -0.512433    0.342746
C      -1.346079   -1.769514   -0.197568
O      -0.267087   -2.512250   -0.547604
N      -2.619719   -2.255174   -0.342160
C      -3.404502   -1.285909    0.094121
N      -4.797662   -1.302612    0.052235
N      -2.696017   -0.217820    0.522139
H       1.162541    1.697452   -0.002788
H       0.947409    0.253498   -1.026307
H      -0.258295    1.556419   -1.051038
H       0.303736    0.013020    1.388580
H      -0.615732   -3.345602   -0.885343
H      -5.232599   -1.045858    0.930763
H      -5.115769   -2.221283   -0.230402
H      -3.049692    0.669030    0.838239
