17

C      -0.102368    1.532947    0.098393
C       0.015732    0.007678   -0.025486
C       0.852097   -0.459732   -1.202264
C       1.851619   -1.268452   -0.843907
C       1.878844   -1.423966    0.640042
O       2.089255   -0.180946    1.342251
C       0.735964   -0.640912    1.171219
C       0.002558   -0.960987    2.360583
C      -0.653870   -1.203371    3.338392
H       0.886786    1.976271    0.237049
H      -0.555022    1.963086   -0.800134
H      -0.727332    1.802089    0.955196
H      -0.993394   -0.420878   -0.093810
H       0.646851   -0.123414   -2.212981
H       2.572947   -1.732381   -1.504701
H       2.275638   -2.304179    1.136336
H      -1.219738   -1.425680    4.209167
