19

C      -0.139188    1.494863   -0.015403
C       0.003019   -0.011240    0.045016
O       0.091227   -0.609393    1.087707
C       0.010896   -0.786670   -1.312350
C      -0.007002   -2.302615   -1.040705
C      -1.233742   -0.360738   -2.146352
O      -2.435145   -0.431681   -1.404317
C       1.214559   -0.413555   -2.052373
C       2.195148   -0.096713   -2.672902
H       0.458613    1.927441   -0.821490
H      -1.191413    1.734127   -0.206371
H       0.149480    1.922804    0.945265
H      -0.903321   -2.580480   -0.478387
H       0.017198   -2.855009   -1.983989
H       0.851344   -2.595804   -0.435856
H      -1.131469    0.680900   -2.458034
H      -1.270762   -0.976331   -3.055982
H      -2.627521   -1.355805   -1.217259
H       3.067463    0.175676   -3.214363
