20

C      -0.118105    1.615304   -0.103476
C       0.008318    0.080564   -0.014904
C       0.687166   -0.467126   -1.248944
C       2.004347   -0.676815   -1.254829
N       2.791610   -0.453024   -0.120198
C       2.278785   -0.206975    1.136766
O       2.998503    0.090336    2.068945
C       0.765619   -0.418880    1.243961
C       0.230977    0.116014    2.572538
H       0.867144    2.093521   -0.110077
H      -0.629626    1.899632   -1.028108
H      -0.690454    2.022902    0.734753
H      -1.006793   -0.331286    0.045843
H       0.111559   -0.639005   -2.150541
H       2.549328   -1.028196   -2.123340
H       3.796048   -0.403587   -0.198477
H       0.651559   -1.514555    1.239633
H       0.396842    1.191985    2.667862
H      -0.842807   -0.078342    2.659253
H       0.742498   -0.363018    3.409304
