18

O      -0.081491    1.453480   -0.147735
C       0.037035    0.065490    0.135438
C      -1.348938   -0.534922   -0.003574
C      -1.989432   -0.612443   -1.423996
C      -2.195630   -2.144114   -1.246007
N      -1.078294   -2.981170   -1.689903
C      -0.365887   -2.888638   -0.507413
O       0.731817   -3.263757   -0.191346
C      -1.504078   -2.082118    0.156877
H       0.796948    1.842789   -0.110151
H       0.737062   -0.425372   -0.556984
H       0.415874   -0.109131    1.155105
H      -2.017306   -0.016021    0.688686
H      -2.918095   -0.046090   -1.517007
H      -1.331696   -0.339578   -2.252788
H      -3.184500   -2.569099   -1.419060
H      -0.725882   -3.147107   -2.623780
H      -1.929930   -2.474969    1.078005
