15

C      -0.083920    1.468295    0.009806
O       1.146767    0.735166   -0.003857
C      -0.080377    0.003071    0.003110
C      -0.340006   -0.858216    1.220358
O      -1.684242   -1.325382    1.346484
C      -0.724525   -2.205530    0.761404
C      -0.737320   -2.198592   -0.764333
O      -1.706648   -1.313236   -1.325209
C      -0.360452   -0.847129   -1.217394
H      -0.302194    1.998735    0.934905
H      -0.317647    2.007119   -0.906632
H       0.192347   -0.640314    2.143021
H      -0.505902   -3.118081    1.307296
H      -0.527943   -3.106125   -1.322088
H       0.156370   -0.620804   -2.146836
