16

N      -0.200704   -1.160984   -0.375933
C      -0.116586   -0.021782   -0.200737
C      -0.030526    1.438686   -0.013032
C      -0.722051    1.898888    1.256662
C      -0.328029    1.531217    2.489396
C       0.867422    0.801408    2.830596
C       2.037763    0.821089    2.140895
C       2.299898    1.575410    0.940718
C       1.403301    1.934630    0.004160
H      -0.543759    1.882917   -0.871254
H      -1.591499    2.536257    1.133393
H      -0.958924    1.826417    3.325277
H       0.858262    0.286105    3.787411
H       2.891919    0.320303    2.588945
H       3.329064    1.898527    0.798302
H       1.700519    2.591620   -0.806642
