21

C      -0.091528    1.578155    0.029927
C      -0.029394    0.044714   -0.007481
C       0.655870   -0.488136   -1.242610
C       0.113952   -0.341079   -2.677667
C       1.193109   -1.397624   -2.984978
O       2.406983   -0.652645   -2.788565
C       2.248444   -0.427890   -1.379645
C       2.333625   -1.863283   -0.813342
C       0.987465   -2.007506   -1.534969
H       0.911304    2.017626    0.014855
H      -0.638257    1.973065   -0.832456
H      -0.596507    1.929144    0.934901
H       0.485993   -0.320719    0.890313
H      -1.047961   -0.362406    0.041280
H      -0.903008   -0.740194   -2.744427
H       0.193692    0.612225   -3.206876
H       1.236715   -1.983740   -3.901358
H       2.866639    0.403014   -1.042163
H       3.190976   -2.462034   -1.129974
H       2.209603   -1.908301    0.271528
H       0.279431   -2.823389   -1.397171
