17

C      -0.030936    1.597363    0.007221
C       1.496343    1.757759    0.024910
C       1.887485    0.904815    1.241573
C       2.389066   -0.192898    0.388387
C       2.041258    0.565099   -0.902059
C       0.777935   -0.173029   -1.368770
C       0.026192    0.057633   -0.042801
N       1.049691   -0.304278    1.024471
H      -0.496473    1.986237    0.917956
H      -0.531408    2.028752   -0.864936
H       1.933571    2.745742   -0.102222
H       2.131760    1.213626    2.252142
H       3.128691   -0.968151    0.556373
H       2.825986    0.792504   -1.620342
H       0.268470    0.278006   -2.225648
H       0.972434   -1.228770   -1.580824
H      -0.901569   -0.489918    0.116311
