15

O      -0.069054    1.379883   -0.034025
C       0.024837    0.011191   -0.030671
C       0.401157   -0.987028    1.119288
C      -1.029227   -1.037349    1.664335
C      -1.173849   -0.954612    0.141322
N       0.029667   -1.921809   -0.057974
C       0.674712   -0.947402   -1.049057
C       0.157270   -0.998076   -2.407539
N      -0.260139   -1.014197   -3.485511
H       0.812631    1.764133    0.034421
H       1.360749   -1.103616    1.625500
H      -1.334782   -1.978922    2.125575
H      -1.367939   -0.171206    2.234740
H      -2.053953   -1.038662   -0.494825
H       1.767345   -1.015389   -1.051661
