20

C       0.160852    1.337087    0.148351
O       0.079782   -0.072831    0.043964
C       0.591714   -0.575178   -1.141943
O       1.996838   -0.352843   -1.218533
C       2.663713   -1.457219   -1.838974
C       4.025546   -1.636505   -1.186449
C       1.704912   -2.629628   -1.685479
N       1.271279   -2.805345   -0.287142
C       0.411283   -2.075531   -1.239917
H       1.201708    1.676725    0.192376
H      -0.336760    1.830111   -0.701415
H      -0.351929    1.617414    1.070959
H       0.099692   -0.076430   -2.000857
H       2.785575   -1.254069   -2.916077
H       3.896157   -1.910999   -0.137186
H       4.593959   -2.421485   -1.696337
H       4.598370   -0.706998   -1.242958
H       1.781937   -3.483243   -2.350439
H       0.898537   -3.744012   -0.166256
H      -0.549397   -2.481162   -1.535513
