22

C       1.713905    1.823686    0.655434
C       1.820035    0.305101    0.505490
C       0.702679   -0.447367    1.242928
O      -0.591714   -0.044506    0.788980
C       0.888512   -1.947273    1.105731
C       1.372036   -2.873299    2.153351
C       0.912054   -2.480268    3.556063
C      -0.526236   -2.468856    2.979600
N      -0.056919   -2.957466    1.628844
H       1.830371    2.125889    1.702286
H       2.486151    2.334659    0.072853
H       0.735245    2.171607    0.315362
H       1.781666    0.030136   -0.557943
H       2.787826   -0.051214    0.881801
H       0.726933   -0.148648    2.296232
H      -0.791535   -0.542426   -0.011252
H       1.191679   -2.236171    0.097854
H       2.105085   -3.644696    1.935338
H       1.063138   -3.281556    4.281597
H       1.317895   -1.554390    3.974937
H      -1.179200   -3.221219    3.425145
H      -1.056679   -1.515189    2.936876
