20

C       0.032706    1.610653   -0.184432
C       0.033738    0.089346   -0.018588
C       0.640487   -0.625752   -1.226067
C       0.652069   -2.128297   -1.084875
O       0.243293   -2.760096   -0.149067
O       1.210706   -2.695410   -2.205909
C       1.306351   -4.065408   -2.258353
N       1.815623   -4.589481   -3.276921
C       1.902090   -6.036738   -3.302050
H       1.049533    1.999238   -0.309612
H      -0.547384    1.916101   -1.062385
H      -0.405080    2.100491    0.690179
H       0.590823   -0.192576    0.881234
H      -0.987401   -0.274791    0.136905
H       0.099603   -0.383930   -2.149975
H       1.673414   -0.302085   -1.407592
H       0.912964   -4.568525   -1.372403
H       1.501364   -6.527091   -2.401538
H       1.360510   -6.414749   -4.175965
H       2.949610   -6.332868   -3.424246
