18

C       0.093154    1.409568   -0.332590
C       0.040854   -0.089025    0.025686
C       0.661603   -0.344739    1.328106
C       1.115042   -0.540765    2.425192
C      -1.399785   -0.609891    0.046679
O      -2.206974    0.000536    1.014446
C      -2.095607   -0.928959   -1.237284
C      -1.681712   -2.049135   -0.296469
H       1.119598    1.783112   -0.302442
H      -0.309360    1.567491   -1.337256
H      -0.510712    1.982760    0.374165
H       0.591196   -0.655149   -0.736903
H       1.546232   -0.720833    3.378903
H      -1.815704   -0.202382    1.874119
H      -3.149858   -0.683645   -1.289080
H      -1.552191   -0.808124   -2.168415
H      -0.857853   -2.692680   -0.586438
H      -2.469208   -2.537208    0.266059
