20

C      -0.045248    1.628745   -0.005580
C      -0.021908    0.116754   -0.032561
C       1.271732   -0.630953   -0.263160
C       0.601064   -0.689995    1.084144
N       1.229795    0.027354    2.160276
C       0.622388   -0.059722    3.475085
C       1.933182   -0.742794    3.205979
C       2.001336   -2.177999    3.172322
C       2.097933   -3.376777    3.141243
H       0.839209    2.022022    0.500255
H      -0.071818    2.035543   -1.022438
H      -0.927650    2.003404    0.525614
H      -0.907028   -0.338826   -0.469720
H       1.272407   -1.522284   -0.880400
H       2.177661   -0.036845   -0.320355
H       0.109450   -1.625924    1.351459
H       0.604260    0.856297    4.059769
H      -0.243833   -0.707010    3.599000
H       2.842117   -0.257654    3.554675
H       2.178297   -4.435350    3.118195
