16

C      -0.460399    1.177471   -0.152725
O       0.423480    0.107041    0.141347
C       0.948431   -0.524103   -0.978927
C       2.012891   -1.574644   -0.596534
N       1.050729   -2.663583   -0.883348
C       0.124010   -1.741237   -1.569028
C      -1.278413   -1.872591   -1.176020
N      -2.394184   -1.959521   -0.886717
H       0.039348    1.943674   -0.764337
H      -1.361856    0.833925   -0.673969
H      -0.751525    1.616223    0.803352
H       1.242158    0.204832   -1.745284
H       2.896950   -1.545379   -1.245496
H       2.328231   -1.529597    0.449709
H       1.390575   -3.430082   -1.451198
H       0.176399   -1.757747   -2.666445
