19

O      -0.100058    1.447563    0.036453
C       0.037767    0.033426    0.010113
C       0.761656   -0.518692    1.238166
C       0.907714   -2.039607    1.101430
C      -0.398520   -2.721750    0.728505
C      -1.656175   -2.470486    1.477478
N      -1.507619   -1.977088    0.108030
C      -1.387197   -0.520703   -0.077013
H       0.781592    1.833357    0.021600
H       0.596571   -0.278938   -0.888939
H       1.753008   -0.057946    1.331229
H       0.201126   -0.243159    2.139499
H       1.641120   -2.250080    0.312115
H       1.311012   -2.481918    2.020045
H      -0.266425   -3.712833    0.295985
H      -2.386146   -3.264612    1.617345
H      -1.628127   -1.743081    2.287676
H      -1.989956    0.006127    0.672898
H      -1.807194   -0.266183   -1.055760
