17

C      -0.006153    1.530641   -0.034252
C      -0.044491    0.030733   -0.014600
C      -1.181836   -0.705003   -0.112443
C      -1.178248   -2.132413   -0.090477
C       0.019135   -2.757376    0.041338
N       0.241421   -4.110001    0.158131
O       1.173085   -2.067740    0.132191
C       1.223790   -0.660100    0.115489
N       2.353794   -0.083819    0.209444
H       0.615146    1.898010   -0.858293
H      -1.013047    1.943864   -0.139213
H       0.444079    1.925028    0.883229
H      -2.134687   -0.193323   -0.213597
H      -2.091115   -2.707095   -0.164042
H      -0.492781   -4.701512   -0.198890
H       1.169295   -4.406303   -0.107531
H       3.105770   -0.767024    0.293861
