22

C      -0.047406    1.491914   -0.021270
C       0.020789   -0.039776   -0.062773
C       0.798063   -0.554321   -1.243390
C       2.256159   -0.258690   -1.654174
C       3.400423   -0.824538   -0.829592
C       1.653266   -1.085358   -2.794146
C       0.802080   -1.997291   -1.862190
C      -0.431254   -1.638270   -2.679971
N       0.313616   -0.308076   -2.713443
H       0.950330    1.930933    0.081001
H      -0.488370    1.880393   -0.943455
H      -0.651664    1.834833    0.823687
H       0.485632   -0.424415    0.854721
H      -0.993591   -0.457835   -0.088857
H       2.423687    0.789692   -1.927859
H       3.225295   -1.870806   -0.557092
H       4.344303   -0.778611   -1.383452
H       3.536977   -0.257123    0.097432
H       2.071597   -1.345567   -3.769145
H       1.086486   -2.941416   -1.385115
H      -0.541628   -2.095255   -3.669293
H      -1.402266   -1.590971   -2.176495
