19

C       0.071048    1.453978   -0.078085
C      -0.057296   -0.047832   -0.029956
O      -0.159419   -0.670203    1.008661
C      -0.062177   -0.799067   -1.345068
N      -0.322314   -2.142084   -1.193681
N       0.136101   -0.131780   -2.420686
C       0.112795   -0.785896   -3.678653
C      -0.108500    0.090081   -4.893832
C       1.252958   -0.485530   -4.637613
H       0.934727    1.745108   -0.679982
H      -0.805178    1.885281   -0.572260
H       0.153560    1.839765    0.938455
H      -0.275559   -2.446116   -0.230461
H       0.055019   -2.781085   -1.873394
H      -0.314048   -1.787241   -3.735432
H      -0.701777   -0.314551   -5.705984
H      -0.254621    1.145119   -4.695707
H       2.022824    0.181451   -4.268843
H       1.608337   -1.294269   -5.266474
