19

C      -0.212554    1.552561   -0.019481
C       0.054469    0.058319    0.011650
N       0.999723   -0.496854   -1.038158
C       2.357455   -0.004526   -0.727995
C       1.821012   -1.112905    0.084767
C       0.884174   -0.580544    1.140777
C       1.218035   -0.064897    2.511474
C       0.366007   -1.304357    2.342661
H       0.692899    2.144477    0.140535
H      -0.643502    1.838694   -0.984518
H      -0.929277    1.826999    0.762437
H      -0.890482   -0.480111   -0.117068
H       3.068144   -0.245467   -1.512954
H       2.497457    0.973793   -0.276228
H       2.192268   -2.131678    0.023731
H       2.234591   -0.184241    2.872765
H       0.730248    0.845285    2.845976
H      -0.694430   -1.233392    2.565730
H       0.807634   -2.264410    2.591413
