18

C       0.073678    1.532534   -0.003195
C       0.047105   -0.003121    0.014540
C      -1.357327   -0.533365    0.034430
C      -2.333557   -0.376711    1.225542
C      -2.897855   -1.702086    0.738847
C      -2.920490   -1.732838   -0.762346
N      -1.657253   -2.093083    0.029872
C      -2.260031   -0.472464   -1.205434
O      -2.240686    0.173163   -2.216036
H       1.103787    1.898387   -0.027318
H      -0.448055    1.915648   -0.884072
H      -0.407651    1.950198    0.887512
H       0.557144   -0.394743   -0.873099
H       0.588463   -0.387078    0.887441
H      -1.818422   -0.506571    2.181751
H      -2.973217    0.509878    1.262478
H      -3.473812   -2.431603    1.298385
H      -3.471034   -2.469610   -1.332744
