18

C       0.114384    1.549286   -0.147032
C      -0.041043    0.030436    0.044192
C       0.550937   -0.466697    1.312184
C       0.049901   -1.068823    2.399791
N       1.112054   -1.291217    3.280975
C       1.064789   -1.917900    4.582395
C       2.274614   -0.814223    2.718246
O       3.395005   -0.817586    3.158006
O       1.915755   -0.300108    1.487018
H       1.169274    1.834811   -0.126419
H      -0.306294    1.860078   -1.107601
H      -0.400104    2.097826    0.647644
H      -1.100058   -0.248544    0.035899
H       0.428535   -0.489581   -0.801163
H      -0.959516   -1.363378    2.631497
H       0.705606   -2.950210    4.511746
H       2.082118   -1.918700    4.976556
H       0.414597   -1.361713    5.266177
