8

O       0.003082   -0.076591    0.002841
C      -0.013417    1.137448    0.006686
C       1.194834    1.936108    0.000450
C       2.203005    2.593234   -0.004773
C      -1.242929    1.902920    0.017702
C      -2.268580    2.532369    0.026861
H       3.097353    3.167957   -0.009395
H      -3.178147    3.082652    0.034923
