17

O      -0.192132    1.482507    0.170758
C      -0.021097    0.076072    0.111102
C      -1.410183   -0.543003    0.003620
C      -1.353594   -2.080263   -0.082074
O      -0.682220   -2.664303    1.028836
C      -2.696973   -2.635470   -0.259478
C      -3.816994   -3.081796   -0.344490
C      -5.150052   -3.608067   -0.490020
O      -5.761242   -4.172985    0.387500
H       0.668931    1.883930    0.318984
H       0.582251   -0.219004   -0.763980
H       0.486163   -0.313254    1.004084
H      -2.009284   -0.246919    0.872546
H      -1.916826   -0.148274   -0.883494
H      -0.743627   -2.360831   -0.950868
H      -1.262866   -2.592620    1.795384
H      -5.589862   -3.452025   -1.495932
