15

N       0.111899    1.361999   -0.110053
C       0.080289    0.014490    0.189380
O       0.985874   -0.566562    0.753677
N      -1.079396   -0.625815   -0.232870
C      -1.150631   -2.053468   -0.179983
C      -2.301441   -2.773308    0.564359
O      -2.637334   -3.499305   -0.663209
C      -1.727494   -2.788932   -1.403605
O      -1.571771   -2.794164   -2.581148
H       0.845535    1.860808    0.368610
H      -0.758890    1.863629   -0.190814
H      -1.636174   -0.165478   -0.936838
H      -0.165538   -2.427956    0.108478
H      -2.023330   -3.462836    1.362729
H      -3.127140   -2.127617    0.870573
