17

C      -0.058682    1.526378   -0.066765
C       0.008940    0.006475   -0.008326
C       1.325597   -0.714230   -0.216561
C       0.716991   -0.705793    1.171204
C       1.357073    0.102192    2.291716
C       0.135474   -1.946044    1.630070
N      -0.304580   -2.934628    2.037448
C      -1.170240   -0.632553   -0.545095
N      -2.125453   -1.102907   -0.995915
H       0.877058    1.981494    0.260675
H      -0.245267    1.845642   -1.095855
H      -0.870356    1.907607    0.558866
H       1.317719   -1.643194   -0.772794
H       2.201578   -0.092526   -0.366976
H       1.865284    0.987396    1.906885
H       0.609293    0.419174    3.023776
H       2.098828   -0.512448    2.809196
