15

N      -0.060100    1.280848    0.225835
C      -0.000263    0.039431   -0.040978
O       1.185586   -0.614697   -0.198169
C       1.152783   -1.874258   -0.883777
C       0.110606   -2.819967   -0.298648
C      -1.211567   -2.091345   -0.201905
C      -1.234139   -0.750434   -0.114869
C      -2.412594   -2.859648   -0.189389
N      -3.365277   -3.518661   -0.184089
H       0.881461    1.677815    0.261490
H       0.943824   -1.698079   -1.946909
H       2.161224   -2.281227   -0.791614
H       0.018403   -3.704865   -0.935891
H       0.414777   -3.172095    0.694953
H      -2.155315   -0.187596   -0.039546
