20

C      -0.056570    1.605446    0.022693
C       0.103328    0.091622    0.029699
O      -1.085128   -0.541732   -0.416169
C       1.271643   -0.840783   -0.334947
N       2.694267   -0.574153    0.085717
C       2.811348    0.763738    0.681549
C       2.159543   -0.312987    1.472321
C       0.732004   -0.771770    1.086700
C       0.004282   -1.778308    1.929474
H       0.266195    2.056220   -0.923202
H      -1.121870    1.818952    0.152054
H       0.477456    2.093229    0.838588
H      -1.163951   -0.375866   -1.362299
H       1.115708   -1.590406   -1.102291
H       3.838044    0.984676    0.965702
H       2.286646    1.605022    0.254988
H       2.656040   -0.747208    2.335909
H      -0.295906   -1.341294    2.890217
H      -0.894306   -2.124997    1.416838
H       0.640005   -2.644783    2.144294
