17

O       0.009057    0.053313    0.101048
C      -0.048018    1.251276    0.040413
C      -1.249698    2.176544   -0.002042
C      -0.881457    3.092464    1.214497
C       0.289870    3.546841    0.312440
C      -0.642862    3.338506   -0.900865
O       0.100830    2.968303   -2.038116
C       1.352175    2.449796   -1.551843
C       1.110547    2.271531   -0.039241
H      -2.233140    1.734570   -0.142967
H      -1.615276    3.886784    1.368415
H      -0.658522    2.602801    2.165013
H       0.843055    4.470638    0.476897
H      -1.355033    4.125198   -1.149374
H       1.575159    1.507876   -2.061794
H       2.159808    3.165850   -1.756123
H       1.994414    2.027504    0.548428
