18

C      -1.846450   -0.324356    0.377683
C      -0.402715   -0.734593    0.171366
O       0.348356   -0.907490    1.109373
C       0.078602   -0.946010   -1.244655
C      -0.820369   -0.567876   -2.403558
O      -1.099761    0.825350   -2.465437
C       1.583086   -0.782778   -1.443792
C       0.996805   -2.152135   -1.421075
H      -2.080557    0.557003   -0.225599
H      -2.515955   -1.127015    0.044746
H      -2.018251   -0.131964    1.436905
H      -0.361242   -0.918597   -3.340736
H      -1.796889   -1.056394   -2.324371
H      -0.254991    1.288609   -2.471766
H       1.915515   -0.378940   -2.394952
H       2.142001   -0.464084   -0.572433
H       1.163185   -2.751925   -0.534315
H       0.914717   -2.703402   -2.351634
