21

C      -0.020569    1.532140   -0.069422
C      -0.089618    0.027244    0.064646
C      -1.209228   -0.650846   -0.693061
O       1.208625   -0.643705   -0.061253
C       0.558076   -0.645557    1.185230
C       1.152524   -0.237955    2.544998
C      -0.153674   -0.823576    3.165062
C       0.267669   -1.862988    2.080774
C       1.731885   -1.689037    2.600586
H       0.831308    1.935018    0.482356
H       0.085558    1.816729   -1.122200
H      -0.936161    1.997824    0.311550
H      -1.135859   -0.426814   -1.763119
H      -1.166967   -1.734585   -0.565829
H      -2.184851   -0.295263   -0.343733
H       1.657803    0.689965    2.811443
H      -0.071081   -1.164140    4.199788
H      -1.080533   -0.270087    2.994236
H      -0.237898   -2.791485    1.816901
H       2.533085   -1.924638    1.898151
H       1.932928   -2.083990    3.599924
