21

C       0.038494    1.506514    0.013640
C       0.027451   -0.003937    0.045515
C       1.004438   -0.856830   -0.825034
C       0.641456   -1.964594    0.224000
C       0.568238   -0.819049    1.263522
C      -0.851356   -2.209897   -0.110569
C      -1.313690   -0.721767   -0.228462
C       1.520408   -3.156509    0.385916
O       2.208618   -3.384761    1.350838
H       1.038221    1.903784    0.217294
H      -0.279893    1.884673   -0.964900
H      -0.644413    1.919791    0.764944
H       0.746666   -1.037303   -1.873189
H       2.042374   -0.526798   -0.737354
H       1.558358   -0.493659    1.588748
H      -0.088044   -0.953782    2.128097
H      -0.982755   -2.773208   -1.039284
H      -1.363695   -2.752060    0.688942
H      -2.075435   -0.462109    0.512958
H      -1.714458   -0.481070   -1.218005
H       1.514401   -3.853009   -0.487072
