21

C      -0.042095    1.552396    0.053108
C      -0.013460    0.023178   -0.000791
C      -1.410208   -0.589687    0.095739
C      -1.408575   -2.100590    0.075789
O      -0.392060   -2.765866    0.051718
C      -2.752308   -2.809746    0.084822
N      -2.633334   -4.167676    0.205163
N      -3.819807   -2.107672    0.007099
C      -5.083524   -2.819909    0.017091
H       0.967180    1.969207   -0.018797
H      -0.634192    1.970268   -0.768911
H      -0.483753    1.909829    0.990165
H       0.463568   -0.311038   -0.929061
H       0.609881   -0.371326    0.809035
H      -1.924749   -0.274209    1.013435
H      -2.069856   -0.241964   -0.707917
H      -1.696941   -4.524262    0.080931
H      -3.398505   -4.760924   -0.065016
H      -5.909624   -2.105671   -0.011998
H      -5.191846   -3.486510   -0.854842
H      -5.200536   -3.442703    0.918010
