13

N      -0.055277    1.329548    0.010624
C      -0.067839    0.067945    0.003876
O       1.056460   -0.751214   -0.006552
C       0.722811   -2.165400   -0.012393
C      -0.767902   -2.142823   -0.004312
C      -1.179055   -0.862424    0.004787
O      -2.533574   -0.834095    0.012216
C      -2.857838   -2.161112    0.006695
N      -1.855642   -2.991348   -0.003029
H       0.903531    1.680503    0.007401
H       1.159670   -2.622660   -0.906878
H       1.169165   -2.632247    0.872400
H      -3.911746   -2.391364    0.011083
