16

C       0.136124    1.547716   -0.347992
C      -0.028374    0.099952    0.031003
O       1.135371   -0.731904    0.038699
C       0.458929   -0.518169    1.284626
C       1.180792    0.152633    2.371431
C       1.194506   -0.047578    3.715403
N       2.051489    0.865643    4.314827
C       2.510939    1.555801    3.324608
O       2.035648    1.192114    2.110550
H       1.013350    1.988963    0.124178
H       0.241184    1.636156   -1.434388
H      -0.751856    2.116487   -0.051604
H      -0.899343   -0.387561   -0.414626
H      -0.090642   -1.385892    1.652645
H       0.652741   -0.781236    4.291091
H       3.220209    2.368209    3.341366
