20

C      -0.040406    1.553262   -0.047802
C      -0.008800    0.035104    0.005876
O       0.650383   -0.421518   -1.174760
C       0.466441   -1.800052   -1.407434
C       0.869145   -2.651156   -0.221050
N       2.173356   -2.346159    0.381771
C       0.939209   -2.018538    1.123177
C       0.710470   -0.507420    1.259457
O       1.936463    0.151185    1.503547
H       0.978012    1.944838   -0.024631
H      -0.536777    1.888277   -0.961915
H      -0.581530    1.954712    0.814586
H      -1.040668   -0.361580    0.016039
H      -0.590377   -2.015244   -1.646641
H       1.070520   -2.050782   -2.285717
H       0.566594   -3.695198   -0.281173
H       2.606335   -3.184065    0.757637
H       0.703395   -2.626721    1.991753
H       0.070708   -0.314820    2.128910
H       2.573080   -0.296746    0.926141
