19

C      -0.030804    1.562285   -0.114870
C       0.035118    0.049869    0.007015
O      -1.252470   -0.545300   -0.031446
C       1.058362   -0.689098   -0.899329
N       2.397517   -0.174541   -0.525666
C       1.766793   -1.255278    0.280151
C       0.798983   -0.568413    1.218506
C       0.927496   -0.052789    2.594380
N       0.132472   -1.265319    2.302170
H       0.975499    1.984568   -0.096360
H      -0.507666    1.854222   -1.060137
H      -0.615958    1.991921    0.704933
H      -1.759539   -0.110844   -0.725286
H       0.859854   -1.126713   -1.870266
H       3.072998   -0.619601   -1.146879
H       2.242769   -2.217301    0.420108
H       1.835764   -0.226323    3.165080
H       0.406000    0.869288    2.841147
H      -0.862547   -1.052990    2.267584
