18

O      -0.039367    1.460103   -0.026158
C       0.048629    0.042991    0.015100
C       0.725486   -0.531963    1.297710
C      -0.409049   -1.279565    1.989021
C      -1.587729   -0.456476    2.497185
C      -2.246216    0.071730    1.204923
C      -2.526524   -1.313494    1.703080
N      -1.324706   -1.817452    0.886928
C      -1.374120   -0.511230    0.101315
H       0.850062    1.811421   -0.129098
H       0.555186   -0.332110   -0.885243
H       1.543155   -1.213353    1.042432
H       1.130932    0.272936    1.918339
H      -0.101147   -2.079896    2.664957
H      -1.744403    0.028725    3.452458
H      -2.881020    0.947192    1.206584
H      -3.420478   -1.874952    1.931919
H      -1.880008   -0.639576   -0.856788
