14

C       0.011329    1.383703    0.008579
O       0.062644   -0.028823    0.001046
C      -1.219559   -0.605345    0.011035
C      -1.118181   -2.056470    0.002475
C      -1.068463   -3.262377   -0.004472
C      -1.013513   -4.693695   -0.013133
O      -1.976546   -5.425967   -0.008148
C       0.354610   -5.245376   -0.029548
N       1.420977   -5.691900   -0.042547
H       1.043274    1.738307    0.000011
H      -0.511326    1.775841   -0.877255
H      -0.493448    1.766974    0.908550
H      -1.794098   -0.295981    0.902668
H      -1.812053   -0.286741   -0.865462
