16

C       0.153024    1.538927    0.408847
C       1.278179    2.170832   -0.369996
C       2.546827    1.738838   -0.328282
C       3.041772    0.599576    0.442379
C       2.380439   -0.524098    0.761880
C       1.026193   -0.901084    0.282795
O      -0.083322   -0.830013    1.202877
C      -0.058041    0.066368    0.088022
H       0.384544    1.586417    1.480726
H      -0.778924    2.090991    0.257575
H       1.046557    3.049317   -0.966100
H       3.303010    2.304351   -0.868608
H       4.075926    0.680696    0.773977
H       2.899123   -1.287529    1.338003
H       1.006689   -1.813103   -0.318772
H      -0.804033   -0.154031   -0.675936
