18

C       0.175160    1.588226    0.081846
C      -0.021987    0.079806    0.043919
C       0.477606   -0.532048   -1.267129
N       0.158517   -1.952913   -1.406223
C       0.821727   -2.968438   -0.750001
O       0.981564   -4.069458   -1.208497
O       1.300974   -2.644379    0.487224
C       0.523610   -1.819458    1.355481
O       0.689122   -0.456198    1.157504
H       1.229838    1.843033   -0.060344
H      -0.411509    2.076136   -0.701834
H      -0.141707    1.981422    1.050523
H      -1.090311   -0.168168    0.152221
H      -0.009795   -0.017140   -2.099467
H       1.558333   -0.352879   -1.348079
H      -0.111726   -2.250049   -2.331933
H      -0.533841   -2.109338    1.270024
H       0.905165   -2.038234    2.353483
