15

C       0.083038    1.483573    0.026668
C      -0.030622    0.004522    0.053516
C      -1.111587   -0.840563   -0.025074
C      -2.469021   -0.478287   -0.168402
N      -3.591322   -0.215725   -0.295509
C      -0.596197   -2.191954    0.052039
N      -1.381293   -3.337683    0.081755
C       0.752003   -2.053322    0.167953
O       1.093663   -0.716860    0.171243
H       0.702773    1.816481   -0.813043
H      -0.908035    1.930005   -0.073315
H       0.544421    1.859611    0.946280
H      -2.267189   -3.235475   -0.394765
H      -0.907029   -4.178585   -0.214868
H       1.567493   -2.748401    0.262312
