19

C      -0.377000    1.502749   -0.200888
C      -0.153959   -0.005822   -0.077713
C       0.713919   -0.385923    1.122230
C       0.877276   -1.919088    1.233408
C       1.553030   -2.325149    2.462570
N       2.075673   -2.617387    3.450919
O       1.993561    0.215190    0.944074
C       2.642113    0.693091    2.033717
N       3.789597    1.194685    1.900344
H       0.574755    2.027735   -0.311453
H      -0.996379    1.730976   -1.072576
H      -0.885887    1.902508    0.683298
H      -1.115351   -0.524364    0.017745
H       0.326335   -0.390199   -0.985654
H       0.254710   -0.007140    2.045958
H      -0.107401   -2.397670    1.200929
H       1.449084   -2.277436    0.370998
H       2.067861    0.594688    2.963352
H       4.136517    1.513172    2.802587
