17

O      -0.235399    0.033069    0.108553
C       0.007302    1.209146    0.040942
C       1.374317    1.792260   -0.274658
C       1.306156    2.837442   -1.352675
C       0.988575    2.651591   -2.841053
C       1.459207    4.118937   -2.991424
O       0.434436    4.881479   -2.288533
C       0.967702    4.325788   -1.091074
C       2.293892    3.965329   -1.664040
H      -0.784961    1.973704    0.212881
H       1.751996    2.250274    0.652275
H       2.049610    0.970559   -0.534883
H       1.686474    1.950730   -3.307140
H      -0.039185    2.436633   -3.150504
H       1.761138    4.561610   -3.937512
H       0.667518    4.735603   -0.135280
H       3.319606    4.148726   -1.375497
