20

C      -0.118449    1.498285   -0.044907
C       0.041675    0.006218    0.004246
C       0.747219   -0.819523   -1.060261
C      -0.251790   -1.972472   -0.695248
C      -0.965205   -2.699927   -1.809809
C       0.396515   -2.801994    0.392523
C       0.435245   -2.075221    1.509018
C      -0.267238   -0.789298    1.253199
N      -1.128056   -0.944857    0.054328
H       0.833369    1.997292    0.171864
H      -0.453829    1.827465   -1.034608
H      -0.853695    1.838029    0.690720
H       0.525823   -0.413299   -2.051461
H       1.820910   -1.012830   -0.974851
H      -0.265459   -3.321152   -2.380017
H      -1.749649   -3.347599   -1.405302
H      -1.433593   -1.990455   -2.498275
H       0.868641   -3.760199    0.213099
H       0.909022   -2.329134    2.448305
H      -0.714186   -0.233748    2.073074
