17

C      -0.095528    1.567138   -0.060736
C      -0.006302    0.053525   -0.005038
N       1.004003   -0.555312   -0.887264
C       1.781159   -1.096646    0.089676
O       2.827389   -1.685026    0.106879
C       0.798111   -0.589412    1.206617
N       1.484137    0.352726    2.081719
C       0.071773   -1.644048    1.896087
C      -0.532909   -2.498144    2.489731
H       0.873457    2.020997    0.153112
H      -0.438454    1.892115   -1.049137
H      -0.817334    1.931154    0.677472
H      -0.991524   -0.406828   -0.129118
H       1.148548   -0.496569   -1.884781
H       0.961489    0.477338    2.943066
H       2.384677   -0.044356    2.336120
H      -1.053797   -3.262075    3.012327
