20

C      -0.053887    1.544002    0.044984
C       0.088473    0.045378   -0.005226
N      -0.768347   -0.817334    0.867082
C       0.703839   -0.794048    1.062396
C       1.429559   -1.933667    0.391442
C       2.770347   -2.429263    0.897782
C       1.553266   -3.302015    1.024824
C       1.149817   -1.750438   -1.061275
C       0.425681   -0.651084   -1.290959
H       0.822388    2.037971   -0.388466
H      -0.934661    1.875613   -0.517566
H      -0.163533    1.896431    1.076055
H      -1.183239   -0.223386    1.585562
H       1.102986   -0.362314    1.975532
H       3.524536   -2.692968    0.163867
H       3.165809   -1.964302    1.795755
H       1.110851   -3.438371    2.005503
H       1.469872   -4.166247    0.374478
H       1.481274   -2.462184   -1.809712
H       0.088397   -0.301030   -2.259383
