19

C      -0.118925    1.393454    0.004755
C       0.018882   -0.090173    0.005567
O      -1.105792   -0.896664   -0.363764
C      -0.361782   -2.031260    0.160399
C       0.577271   -1.070087    0.980439
C       1.290395   -0.885623   -0.363969
C       0.773686   -2.229153   -0.882845
C       1.684871   -3.402345   -0.578281
O       0.928851   -4.592750   -0.767156
H       0.803846    1.859988    0.362392
H      -0.318903    1.763793   -1.006340
H      -0.940772    1.708760    0.655097
H      -0.983660   -2.849839    0.512600
H       0.902185   -1.004249    2.009625
H       2.240056   -0.400719   -0.557211
H       0.426025   -2.276777   -1.920550
H       2.559760   -3.377144   -1.247202
H       2.059659   -3.325425    0.455158
H       1.507703   -5.345177   -0.614731
