21

C      -0.186591    1.589746    0.047073
N      -0.065241    0.136039    0.085368
C       0.668952   -0.306570    1.256532
C       2.150733    0.020211    1.138004
O       2.878803    0.232067    2.071116
C      -1.342359   -0.550673   -0.080946
C      -1.962499   -0.314021   -1.439292
C      -3.409255   -0.563679   -1.645084
N      -2.884605    0.811896   -1.680236
H       0.803929    2.047534    0.131387
H      -0.624745    1.908115   -0.900674
H      -0.809058    1.987019    0.872108
H       0.292159    0.092930    2.215293
H       0.606373   -1.402351    1.319563
H       2.517707    0.017849    0.086167
H      -1.155140   -1.625051    0.038744
H      -2.077767   -0.267397    0.701538
H      -1.283989   -0.496067   -2.269878
H      -3.765987   -0.945910   -2.596886
H      -3.999031   -0.872526   -0.785005
H      -3.095805    1.273251   -0.797474
