22

C       0.038461    1.559263    0.133683
C      -0.055561    0.050058   -0.079272
O       0.587774   -0.546069    1.066433
C      -1.524731   -0.422575   -0.069935
O      -2.122922   -0.205649    1.188617
C       0.626054   -0.398871   -1.380723
N       1.985802    0.100094   -1.504705
C       3.052727   -0.743521   -0.984643
C       2.852989   -0.590775   -2.452000
H       1.081396    1.860504    0.234288
H      -0.393587    2.088850   -0.720481
H      -0.516189    1.840921    1.031121
H       0.647430   -1.496054    0.909694
H      -2.111949    0.125961   -0.814406
H      -1.558168   -1.492921   -0.346966
H      -1.435708   -0.424345    1.833213
H       0.583665   -1.505666   -1.441503
H       0.046782   -0.015658   -2.230188
H       3.859805   -0.228063   -0.473070
H       2.780881   -1.702908   -0.547117
H       2.444402   -1.446711   -2.988016
H       3.509177    0.043320   -3.041137
