15

C       0.110380    1.621243    0.196439
C       0.066687    0.094025    0.047650
O       0.645539   -0.564257    1.161921
C      -1.378889   -0.409366   -0.137977
O      -2.035465   -0.193382    1.106254
C       0.868144   -0.351739   -1.172939
O       0.734361    0.120521   -2.271870
H       1.119878    1.936509    0.471864
H      -0.164434    2.099384   -0.747390
H      -0.583395    1.941535    0.977668
H      -0.038898   -0.575464    1.843415
H      -1.861690    0.136816   -0.958505
H      -1.362456   -1.479267   -0.390062
H      -2.840200   -0.718351    1.126505
H       1.579731   -1.178381   -0.957100
