17

C      -0.014997    1.383642    0.179121
O       0.007650   -0.036309    0.073704
C      -1.186906   -0.631421   -0.077415
N      -2.338387    0.052756   -0.079332
N      -3.238912   -0.956404   -0.151102
C      -4.568857   -1.303406   -0.675539
C      -4.037615   -2.793485   -0.690320
C      -2.703273   -2.182771   -0.284536
C      -1.334147   -2.047022   -0.229861
H       1.025335    1.692353    0.292645
H      -0.447899    1.837856   -0.718552
H      -0.602999    1.702932    1.045656
H      -5.397439   -1.067690   -0.002531
H      -4.766864   -0.898406   -1.672098
H      -4.507351   -3.459735    0.036596
H      -4.055933   -3.262755   -1.676071
H      -0.546908   -2.779069   -0.273567
