14

N       0.007311   -3.743587   -0.145257
C       0.004250   -2.582818   -0.103221
C      -0.002850   -1.218403   -0.051199
C      -0.011224   -0.011436   -0.001792
C      -0.029814    1.446368    0.054020
C      -0.603839    1.998687    1.400996
O       0.278310    3.057684    1.712018
C       1.526291    2.623555    1.241810
O       1.284771    1.999238   -0.008766
H      -0.596447    1.828910   -0.803195
H      -1.615016    2.394959    1.301758
H      -0.587028    1.218243    2.173662
H       2.176917    3.487346    1.088603
H       1.986987    1.907122    1.943990
