23

C       0.091138    1.514127    0.014097
C       0.028045    0.009211   -0.007068
C       0.604453   -0.945234   -1.127549
C      -0.043594   -1.875983   -0.065129
C       0.645038   -0.979952    1.017458
C      -0.562286   -3.271176    0.182856
C      -1.715461   -2.985885    1.213050
C      -2.118779   -1.459332    1.107380
C      -1.245815   -0.916379   -0.035152
H       1.128365    1.867472   -0.005618
H      -0.426238    1.943462   -0.851063
H      -0.381098    1.913526    0.918615
H       0.115039   -0.900557   -2.105585
H       1.694054   -0.968005   -1.224479
H       1.737977   -1.024362    1.054600
H       0.224888   -0.982287    2.024996
H      -0.966935   -3.700195   -0.741112
H       0.174797   -3.975307    0.580261
H      -2.572757   -3.639183    1.028588
H      -1.370045   -3.208956    2.226797
H      -3.181622   -1.345491    0.879205
H      -1.953339   -0.956050    2.063729
H      -1.802221   -0.859848   -0.978389
