14

C       0.094099   -1.213456    0.023358
C       0.027730   -0.014073   -0.021267
C      -0.089012    1.410494   -0.082237
C      -1.137625    2.223184    0.739604
C      -0.902853    3.326530   -0.287774
C       0.583063    3.187349   -0.664314
O       1.151617    2.158660    0.143321
C      -0.424477    2.328100   -1.337288
H       0.162108   -2.272546    0.065980
H      -2.135333    1.789373    0.647267
H      -0.879699    2.397961    1.788077
H      -1.465670    4.237339   -0.442822
H       1.217818    3.986912   -1.020202
H      -0.694353    2.123049   -2.363243
