16

O      -0.216889   -0.005410   -0.161714
C      -0.080048    1.168880   -0.020807
C      -0.964031    2.357357    0.377519
O       0.182516    3.228585    0.267638
C       1.085878    2.168480   -0.135225
C       2.258676    1.982537    0.816343
C       3.128380    3.255206    0.868975
C       4.241504    3.129672    1.805876
N       5.116853    3.012396    2.550915
H      -1.759625    2.604280   -0.336370
H      -1.381676    2.321372    1.391033
H       1.435085    2.316209   -1.167953
H       1.888516    1.753496    1.820642
H       2.853747    1.126197    0.482956
H       3.530833    3.483655   -0.124878
H       2.506532    4.106518    1.164815
