21

O      -0.015517    1.372770    0.001280
C       0.041300   -0.032567   -0.045940
C       0.735671   -0.629076   -1.282490
C      -0.035686   -1.961142   -1.502073
C      -0.779073   -2.141863   -0.164218
C       0.294538   -2.217288    0.972626
C       0.305772   -0.726257    1.350686
C      -1.201750   -0.486770    1.649965
C      -1.344965   -0.722649    0.129665
H       0.869733    1.700181    0.191651
H       0.632738    0.058273   -2.126423
H       1.807638   -0.788134   -1.118574
H      -0.747614   -1.861235   -2.328818
H       0.618860   -2.806908   -1.733517
H      -1.505039   -2.956448   -0.158944
H      -0.013684   -2.841855    1.816510
H       1.255014   -2.596163    0.609518
H       1.094200   -0.370433    2.018202
H      -1.696949   -1.177793    2.338372
H      -1.417950    0.546827    1.919566
H      -2.215573   -0.400151   -0.442910
