19

O      -0.166350    0.494799    0.791184
C       0.216597    1.626165    0.575653
N       1.482497    1.951409    0.204885
C       2.488830    0.927012   -0.076861
C       3.735639    1.532020   -0.758986
C       4.749964    1.706292    0.362055
C       4.310436    2.348826    1.628763
N       4.368567    0.883166    1.524909
C       3.073943    0.257470    1.200354
H      -0.435235    2.518145    0.667191
H       1.678002    2.910079   -0.036669
H       2.008610    0.169277   -0.701384
H       4.129413    0.826446   -1.497134
H       3.510969    2.459268   -1.297592
H       5.803134    1.712676    0.095356
H       5.051741    2.781533    2.294881
H       3.336747    2.828554    1.667898
H       2.383798    0.315530    2.044232
H       3.264358   -0.801134    0.995998
