20

C       0.094869    1.503041    0.159587
C       0.053656   -0.026082    0.036299
C      -1.342152   -0.616551    0.204913
C      -2.396622   -0.025313    1.038247
O      -2.442410    0.079865   -0.386397
N       0.643651   -0.497109   -1.216423
C       0.063951   -0.086884   -2.489549
C       1.750772   -1.295953   -1.212257
O       2.320141   -1.725809   -2.193080
H       1.092860    1.868556   -0.094068
H      -0.634994    1.972540   -0.503469
H      -0.127283    1.814186    1.183683
H       0.671156   -0.458828    0.833937
H      -1.372092   -1.696050    0.047207
H      -3.149161   -0.674792    1.482531
H      -2.221122    0.908492    1.567525
H       0.208707    0.984705   -2.666669
H       0.574135   -0.646983   -3.272947
H      -1.008024   -0.299228   -2.514356
H       2.086211   -1.522583   -0.180192
