19

O      -0.492345    1.498143   -0.067278
C      -0.125680    0.142416    0.004605
C       1.059790   -0.157223   -0.871018
C       2.437195   -0.162563   -0.353526
O       1.757051   -1.382533   -0.659007
C      -0.287253   -0.667227    1.259857
C      -1.475239   -0.145949    2.078535
C      -2.413242   -0.369897    0.848689
C      -1.214767   -0.878967    0.038744
H       0.180939    2.011722    0.393423
H       0.913891    0.105766   -1.919913
H       3.264972    0.086698   -1.015339
H       2.612604    0.014915    0.706612
H       0.504517   -1.313501    1.618361
H      -1.724162   -0.799126    2.917036
H      -1.389864    0.881365    2.444123
H      -3.151680   -1.152850    1.032703
H      -2.917709    0.512391    0.448565
H      -1.227814   -1.701672   -0.666994
