18

C       0.058912    0.501426    0.629604
O      -0.255981    0.491308   -0.763742
C       0.463856   -0.384065   -1.506357
C       0.715540   -1.737343   -1.392366
O       0.249729   -2.492650   -0.351179
C       0.663497   -3.842419   -0.344154
C       1.499801   -2.122075   -2.519841
C       1.688761   -0.995139   -3.289558
N       1.065585    0.052460   -2.661737
H      -0.122715   -0.478526    1.080319
H       1.106964    0.783888    0.791435
H      -0.595544    1.246833    1.086115
H       0.300740   -4.380900   -1.230543
H       1.758049   -3.930839   -0.303058
H       0.232300   -4.296948    0.550030
H       1.872775   -3.107861   -2.745002
H       2.205068   -0.859586   -4.224876
H       1.012707    1.002415   -2.984483
