17

C      -0.108073    1.630526   -0.016852
C       0.098970    0.157486   -0.034129
C       0.080829   -0.762381   -1.070005
O      -0.137719   -0.465212   -2.373325
N       0.282106   -2.068704   -0.670445
C       0.374021   -1.941427    0.634470
C       0.867171   -2.476437    1.964969
C       0.817105   -0.961400    2.407483
N       0.242450   -0.673709    1.073242
H       0.723735    2.165547    0.458727
H      -0.189007    1.991525   -1.044928
H      -1.025981    1.918952    0.511022
H      -0.077645   -1.300798   -2.851200
H       0.193245   -3.144196    2.507341
H       1.871717   -2.906357    1.958373
H       0.156313   -0.708334    3.240408
H       1.802554   -0.513937    2.562932
