18

C       0.150678    1.285301    0.198791
O      -0.288908    0.002154   -0.190926
C       0.482420   -0.567571   -1.204857
C       1.890293   -1.161640   -0.898360
C       1.668573   -2.309009    0.103307
C       0.401798   -2.902779   -0.402720
C       0.101067   -2.000628   -1.614864
C       1.603088   -2.285903   -1.948135
N       1.719840   -3.415438   -0.914996
H       1.170922    1.263703    0.609850
H       0.133838    1.993566   -0.644297
H      -0.532589    1.641984    0.972860
H       0.538255    0.091084   -2.088639
H       2.802284   -0.571136   -0.855506
H       2.053833   -2.435914    1.107026
H      -0.269128   -3.521955    0.178769
H      -0.742542   -2.226811   -2.262070
H       2.045424   -2.385548   -2.935694
