20

C      -0.474246    1.057482   -0.128764
N      -0.032343   -0.312904    0.113666
C       0.500396   -1.129373   -0.968011
C       0.563941   -0.720774   -2.429642
O       1.082408    0.555592   -2.725238
C       2.485197    0.688375   -2.590695
C       2.970941    0.915048   -1.181609
C       2.500143    0.357145   -0.065175
C       1.416365   -0.642280    0.109135
H       0.150868    1.634064   -0.817054
H      -1.489958    1.020543   -0.536465
H      -0.522218    1.576533    0.834073
H       0.186579   -2.174586   -0.896035
H       1.130807   -1.499074   -2.970501
H      -0.453947   -0.722720   -2.838246
H       2.989805   -0.189601   -3.032505
H       2.759533    1.551558   -3.206562
H       3.804264    1.609700   -1.092880
H       2.980699    0.639403    0.870397
H       1.654112   -1.354244    0.900157
