9

F       0.039613    0.057803    0.002631
C      -0.053672    1.365160    0.011012
C      -1.227711    2.013842    0.030663
C      -1.197136    3.461672    0.038256
O      -2.122879    4.217200    0.054241
O       0.103246    4.002204    0.022714
N       1.270082    3.227136    0.002511
N       1.180203    1.987625   -0.002698
H      -2.182463    1.505889    0.040956
