23

C      -0.982015    0.537161   -1.540165
C       0.066969   -0.384216   -0.931331
C       1.544364   -0.242688   -1.380798
O       1.801707    1.107771   -1.734799
C       1.975225   -0.608108    0.072751
C       3.208390    0.058767    0.667542
C       0.532886   -0.235678    0.558661
C       0.386164    1.152924    1.179659
O      -0.951456    1.428319    1.581063
H      -0.710716    1.590751   -1.431570
H      -1.090904    0.346422   -2.613173
H      -1.963219    0.369085   -1.080845
H      -0.233385   -1.425125   -1.093386
H       1.885479   -0.917380   -2.178755
H       2.751204    1.209179   -1.854394
H       2.090571   -1.696560    0.129728
H       3.169811    1.147492    0.569941
H       3.311929   -0.175915    1.731975
H       4.120247   -0.291894    0.168923
H       0.079498   -0.952699    1.250135
H       0.982031    1.204510    2.097797
H       0.766944    1.925831    0.499635
H      -1.474162    1.550180    0.783557
