13

O      -0.145216    0.584524   -1.356710
C      -0.069291    1.288602   -0.389405
O      -1.273320    1.689215    0.167171
C      -1.530454    2.467010    1.237841
C      -0.739249    3.105085    2.110820
C       0.718429    3.172221    2.196207
O       1.264278    3.815791    3.078995
C       1.570475    2.459779    1.211946
C       1.234513    1.697071    0.165289
H      -2.608158    2.541304    1.345440
H      -1.249261    3.666937    2.885750
H       2.627551    2.610571    1.413681
H       2.029020    1.264035   -0.434127
