20

C      -0.097448    1.528561    0.153350
C       0.013801    0.010356   -0.018468
C       0.747238   -0.472150   -1.309318
C       0.008897   -0.005702   -2.587184
C       2.215589    0.016268   -1.341624
C       0.747698   -1.935557   -1.284414
C       0.742355   -3.144658   -1.253783
C       0.737784   -4.509235   -1.221861
N       0.733551   -5.670994   -1.194253
H       0.882878    2.010326    0.210217
H      -0.657789    1.996176   -0.661351
H      -0.626078    1.754895    1.084096
H       0.536847   -0.415776    0.845017
H      -0.989537   -0.430185   -0.016884
H       0.037480    1.084346   -2.664597
H       0.484203   -0.420774   -3.479840
H      -1.036485   -0.326387   -2.576904
H       2.751624   -0.288353   -0.438493
H       2.740561   -0.398597   -2.206101
H       2.250602    1.106359   -1.415741
