12

O       0.253097    1.596481   -0.126156
C       0.139681    0.197037   -0.017978
C       0.651254   -0.490424   -1.217176
N       1.066786   -1.018033   -2.156759
C       0.894148   -0.320431    1.248605
O       2.202576    0.198234    1.293481
C       0.125695    0.020488    2.459240
N      -0.470140    0.304861    3.406851
H       1.136972    1.798088   -0.456491
H      -0.927062   -0.027086    0.084082
H       0.987324   -1.409678    1.189889
H       2.148340    1.115818    1.586909
