22

C      -0.250406    1.471356    0.096401
C       0.079898   -0.021440   -0.106350
C       0.871595   -0.210556   -1.330842
N       1.504657   -0.355179   -2.287252
C       0.812621   -0.607457    1.095429
C       0.039639   -1.123699    2.288699
C       0.838750   -2.083027    1.433524
C       0.092587   -3.084723    0.570138
C       2.136989   -2.624078    2.005380
H       0.664479    2.055744    0.228179
H      -0.793481    1.875525   -0.761535
H      -0.866768    1.588328    0.991528
H      -0.861428   -0.562575   -0.253893
H       1.729912   -0.068579    1.321154
H       0.399702   -0.876920    3.282022
H      -1.043214   -1.159017    2.208076
H      -0.875373   -2.708703    0.228022
H       0.678289   -3.358196   -0.314527
H      -0.100453   -4.002095    1.137697
H       1.951732   -3.506357    2.629076
H       2.824907   -2.919825    1.205156
H       2.645205   -1.878501    2.624766
