24

C      -0.098921    1.547451    0.064320
C       0.041143    0.022885    0.011358
C       0.767378   -0.514034   -1.237845
C       2.236984   -0.071192   -1.306018
C       0.661379   -2.026425   -1.310684
C      -0.604199   -2.921927   -1.362697
N       0.518210   -3.970670   -1.418681
C       1.188586   -2.995367   -2.400329
C       1.183817   -3.112948   -0.329961
H       0.872672    2.047784    0.118550
H      -0.619152    1.926852   -0.822566
H      -0.674444    1.855640    0.942833
H       0.568381   -0.328869    0.908615
H      -0.959616   -0.424736    0.053496
H       0.249545   -0.114791   -2.123854
H       2.728633   -0.470964   -2.198552
H       2.330673    1.017533   -1.339946
H       2.793528   -0.427417   -0.431202
H      -1.224589   -3.000023   -0.465221
H      -1.218882   -2.892791   -2.267739
H       0.711465   -2.971938   -3.384971
H       2.268975   -3.142983   -2.487608
H       2.263802   -3.270136   -0.254995
H       0.701932   -3.203819    0.647878
