13

N       0.111797    1.294838    0.006357
C       0.061804   -0.047195    0.000267
O       1.011546   -0.813352   -0.012630
C      -1.400762   -0.561398    0.012007
O      -2.344500    0.195703    0.025105
N      -1.405643   -1.931096    0.004636
C      -2.482108   -2.812614    0.010415
N      -3.693592   -2.443713    0.024375
H       0.996391    1.772796    0.000438
H      -0.760219    1.801253    0.017538
H      -0.466662   -2.314625   -0.006570
H      -2.127650   -3.850490    0.001271
H      -4.301683   -3.261256    0.025912
