18

O      -0.000492    1.424792   -0.002701
C       0.043771    0.003789   -0.037682
C       0.855761   -0.558895    1.144238
C       0.833129   -2.081188    1.209368
N      -0.015161   -2.685258    2.256580
C      -0.427968   -2.781473    0.847962
C      -1.600112   -1.954063    0.392441
O      -1.971377   -0.826694    1.183198
C      -1.354215   -0.583692   -0.089830
H      -0.458210    1.674473    0.808699
H       0.544096   -0.235373   -0.985423
H       1.880220   -0.184987    1.067638
H       0.424028   -0.168866    2.070999
H       1.763713   -2.589455    0.969208
H       0.379122   -3.573866    2.555361
H      -0.357742   -3.749401    0.356264
H      -2.445783   -2.508965   -0.013848
H      -2.012194   -0.147283   -0.841046
