19

C      -0.143167    1.559668    0.018462
C       0.016366    0.067375    0.039062
C      -0.796802   -0.847558    0.933623
C       0.695170   -0.893688    1.001465
N       1.155483   -1.776982   -0.097101
C       0.647782   -0.772283   -1.111183
C      -0.250199   -1.354321   -2.200874
C       1.767179   -0.037757   -1.711572
N       2.661290    0.528072   -2.179308
H       0.766156    2.057583   -0.332452
H      -0.968521    1.862561   -0.637198
H      -0.368155    1.934545    1.021676
H      -1.295161   -0.320486    1.741441
H      -1.334950   -1.709010    0.549439
H       1.287330   -0.723116    1.892146
H       2.168462   -1.837357   -0.134744
H      -1.077137   -1.902150   -1.745541
H      -0.653227   -0.558412   -2.834397
H       0.314073   -2.045536   -2.833010
