17

C       0.019338    1.518575   -0.032206
C       0.030508    0.014078   -0.020840
C       0.024917   -0.733060   -1.191482
C       0.061107   -2.126615   -1.139920
O       0.061276   -2.927997   -2.248164
C       0.099269   -2.727223    0.113521
N       0.092032   -2.032661    1.251749
C       0.062244   -0.700920    1.195377
N       0.129291   -0.026844    2.416273
H       0.854545    1.923672    0.551079
H       0.092297    1.908849   -1.050545
H      -0.902371    1.924974    0.407032
H       0.000407   -0.223743   -2.153117
H       0.038890   -2.375188   -3.035492
H       0.130440   -3.810848    0.189101
H      -0.058265   -0.648015    3.191638
H      -0.406393    0.827359    2.472193
