16

C      -0.020120    1.476838   -0.007304
C      -0.008128   -0.018257    0.011547
N      -0.025640   -0.725546   -1.116787
N      -0.007393   -2.009378   -0.719983
C       0.021201   -2.164041    0.627680
C       0.021575   -0.880310    1.138200
N       0.045694   -0.472342    2.477797
C       0.073997   -1.305275    3.556686
O       0.082102   -2.517173    3.502783
H       0.872370    1.899240    0.470742
H      -0.046577    1.828118   -1.040572
H      -0.896169    1.885478    0.511374
H      -0.015961   -2.734476   -1.416034
H       0.038663   -3.119077    1.119822
H       0.041795    0.519721    2.656025
H       0.088925   -0.738307    4.506957
