20

C       0.253820    1.618877   -0.194965
C       0.036666    0.128023    0.017796
C       0.800879   -0.891913   -0.870780
N       1.198069   -1.713662    0.326731
C       2.620648   -1.507055    0.790851
C       3.774953   -1.478797   -0.195692
C       2.173511   -0.225127    1.523634
O       2.732653    0.700135    2.035775
C       0.705668   -0.586988    1.220659
H       1.315506    1.880903   -0.168952
H      -0.150315    1.930815   -1.164198
H      -0.249766    2.206015    0.580050
H      -1.034628   -0.093768    0.020156
H       0.197058   -1.464027   -1.579897
H       1.641023   -0.448885   -1.416487
H       2.816765   -2.282097    1.545691
H       3.696073   -0.660638   -0.915755
H       4.712701   -1.344591    0.351186
H       3.832595   -2.422677   -0.746655
H       0.091795   -0.837511    2.091006
