21

C      -0.137986    1.535498   -0.004933
C       0.056191    0.021659    0.008806
C       1.029533   -0.573588   -1.046411
C       2.406921   -0.047893   -0.575325
C       2.279058   -0.065813    0.980652
C       0.824257   -0.573742    1.218781
C       0.859242   -2.051933    0.836568
O       0.833267   -3.005267    1.570302
C       0.951970   -2.075103   -0.703061
H       0.802914    2.082839    0.097383
H      -0.604260    1.853537   -0.943795
H      -0.794100    1.850844    0.812997
H      -0.929596   -0.452562   -0.082446
H       0.793116   -0.340759   -2.086695
H       3.223757   -0.679742   -0.934797
H       2.596364    0.962384   -0.947470
H       3.016234   -0.713311    1.462139
H       2.403904    0.932128    1.408307
H       0.433972   -0.392758    2.219980
H       0.046161   -2.543615   -1.105366
H       1.805735   -2.670973   -1.039053
