18

C      -0.090981    1.583108    0.128912
C      -0.008904    0.057571    0.020732
O       0.658727   -0.406769    1.189236
C      -1.379480   -0.509370   -0.017999
N      -2.430149   -0.989697   -0.002935
C       0.744452   -0.422039   -1.246702
O       0.061208    0.078906   -2.373427
C       2.212078    0.002108   -1.279898
O       2.708437   -0.509695   -2.514809
H       0.904041    1.986081    0.330420
H      -0.472830    2.000065   -0.803584
H      -0.748702    1.863747    0.953367
H       0.576145   -1.366895    1.230261
H       0.724233   -1.526179   -1.242009
H       0.644412   -0.082482   -3.126285
H       2.288952    1.096880   -1.252201
H       2.749795   -0.412130   -0.418538
H       3.564864   -0.111478   -2.692427
