20

C      -0.256811    1.505842   -0.151717
C      -0.049458    0.005330    0.003299
C       1.023512   -0.613366   -0.962550
C       1.845232   -1.045636    0.267488
C       3.201187   -0.629392    0.775817
O       2.966503   -0.133077    2.101790
C       1.605517    0.303886    2.253152
C       0.833594   -0.447302    1.198641
N       1.088710   -1.884627    1.191906
H       0.696551    2.045297   -0.158420
H      -0.769552    1.727445   -1.093507
H      -0.864197    1.910130    0.665271
H      -1.022722   -0.499584   -0.011642
H       0.707050   -1.417398   -1.634756
H       1.523959    0.157152   -1.555421
H       3.932455   -1.437934    0.869894
H       3.619659    0.151100    0.120150
H       1.318434    0.075084    3.283903
H       1.514288    1.389101    2.095136
H       0.349544   -2.400681    0.719989
