20

C       0.018646    1.531972   -0.176644
C       0.005441    0.023054   -0.019558
O       0.669035   -0.531781   -1.167328
C       0.758026   -1.874112   -1.214018
N       0.280602   -2.614431   -0.291545
C       1.435769   -2.323871   -2.397142
C       1.999568   -2.743290   -3.377088
C       2.675783   -3.265818   -4.557411
C       2.591019   -4.798152   -4.679841
H       1.043618    1.909754   -0.229342
H      -0.505874    1.833950   -1.087563
H      -0.478225    1.998528    0.679206
H       0.526649   -0.302181    0.886994
H      -1.012350   -0.377540    0.033817
H       0.447389   -3.594224   -0.508579
H       2.245385   -2.797076   -5.451622
H       3.727653   -2.953217   -4.532121
H       3.049256   -5.283561   -3.814117
H       1.550097   -5.126441   -4.740748
H       3.112369   -5.134906   -5.580368
