21

C      -0.019160    1.562656   -0.042319
C       0.049154    0.029981   -0.001183
C      -1.379799   -0.541172   -0.002788
C       0.845293   -0.571580   -1.201246
C       1.541712   -1.769323   -0.609102
C       1.489078   -1.774019    0.722229
C       0.792022   -0.544948    1.267505
C       1.834642    0.398231    1.848100
O       1.827951    0.818895    2.976251
H       0.973015    2.022596   -0.088058
H      -0.573886    1.894760   -0.926520
H      -0.532120    1.961069    0.839499
H      -1.915698   -0.232928   -0.907255
H      -1.368132   -1.635174    0.028528
H      -1.946867   -0.182270    0.862423
H       0.183231   -0.834114   -2.035661
H       1.573824    0.145100   -1.605150
H       2.027038   -2.526447   -1.215586
H       1.931413   -2.521306    1.371250
H       0.087536   -0.763143    2.076997
H       2.653770    0.664474    1.140402
