18

C      -1.801487    0.789695   -0.772838
N      -0.827441   -0.264966   -0.516696
C       0.373800   -0.375195   -1.322734
C       0.720575    0.579053   -2.460193
C      -0.019810    0.280038   -3.682035
C      -0.636152    0.016141   -4.679534
C       0.464753    0.067297    0.116113
C       0.823007    1.420925    0.440238
C       1.118666    2.547032    0.746007
H      -1.372708    1.787856   -0.929201
H      -2.381671    0.513584   -1.657151
H      -2.479294    0.846362    0.083937
H       0.652089   -1.406698   -1.535025
H       0.552448    1.617292   -2.159387
H       1.797745    0.495482   -2.654939
H      -1.178227   -0.208216   -5.564489
H       0.785697   -0.664292    0.855193
H       1.384978    3.538628    1.017649
