19

C       0.303903    0.698647   -1.390936
C      -0.034043    0.016733   -0.085361
C       1.009661   -0.626963    0.726864
O       0.455153    0.639700    1.107909
C      -1.444606   -0.450505    0.036632
C      -2.586838    0.336090    0.601355
C      -2.264153   -1.039667    1.158421
C      -2.664486   -2.092133    0.131099
O      -1.919577   -1.411397   -0.919409
H       1.353725    1.000742   -1.408210
H       0.112666    0.020992   -2.228495
H      -0.317876    1.589314   -1.526933
H       0.750637   -1.461979    1.374875
H       2.045410   -0.596214    0.391707
H      -2.299689    1.154504    1.252965
H      -3.479919    0.495274    0.002665
H      -2.015885   -1.212360    2.196516
H      -2.237089   -3.083148    0.320355
H      -3.729202   -2.187837   -0.112375
