25

C      -0.113859    1.570296   -0.114127
C      -0.141352    0.040960   -0.197895
C       0.844987   -0.559808   -1.219389
C       2.314414   -0.289744   -0.862680
C       0.600124   -2.054876   -1.388316
C      -0.504704   -2.504186   -2.307579
C       0.952456   -2.697781   -2.704304
O       0.823563   -2.690002   -0.151974
C       0.992138   -4.085526   -0.125332
H       0.848166    1.945759    0.248086
H      -0.299319    2.026145   -1.094009
H      -0.885103    1.936352    0.571133
H       0.063795   -0.392216    0.787186
H      -1.154021   -0.283817   -0.467565
H       0.637606   -0.100183   -2.195978
H       2.982901   -0.727421   -1.611253
H       2.526254    0.781795   -0.814444
H       2.560030   -0.733861    0.106064
H      -1.066405   -3.395641   -2.050375
H      -1.091062   -1.744964   -2.814432
H       1.372018   -2.066252   -3.480647
H       1.324896   -3.715099   -2.719997
H       0.135991   -4.627575   -0.553232
H       1.904987   -4.405072   -0.647219
H       1.078999   -4.365032    0.927675
