20

C       0.031299    1.353601    0.286849
O       0.002018    0.010800   -0.172375
C      -1.252560   -0.551298   -0.113087
C      -1.883873   -1.074944    1.147763
C      -1.596958   -2.015864   -0.012097
C      -2.603069   -1.839403   -1.198236
C      -2.856755   -2.873097   -2.248451
N      -3.620808   -0.829200   -0.799048
C      -2.279391   -0.401952   -1.285800
H       1.063088    1.699865    0.194087
H      -0.619319    2.003169   -0.315723
H      -0.284214    1.423420    1.336606
H      -1.174129   -1.184048    1.962747
H      -2.899591   -0.830494    1.430417
H      -0.931367   -2.864404    0.078314
H      -3.469175   -3.695216   -1.858730
H      -3.380436   -2.438859   -3.107268
H      -1.916049   -3.301865   -2.610947
H      -4.266238   -0.731633   -1.583777
H      -2.157752    0.240013   -2.149734
