14

O      -0.006299   -0.008198   -0.047216
C      -0.013995    1.198198   -0.006629
C      -1.264942    2.096218    0.018633
C      -0.706021    3.508952   -0.050260
C      -1.377202    4.655609   -0.687435
O      -1.306405    4.552320    0.731960
C       0.774264    3.380886    0.008706
C       1.166580    2.100351    0.022551
H      -1.935657    1.837673   -0.804426
H      -1.810697    1.942130    0.954456
H      -0.786785    5.456458   -1.131971
H      -2.364970    4.509457   -1.123116
H       1.414135    4.255563    0.040267
H       2.181368    1.725135    0.050549
