21

C      -0.070211    1.542698   -0.096004
C       0.023877    0.024760   -0.017853
O       0.658642   -0.429564   -1.206476
C       0.708467   -1.844396   -1.270013
C       1.695337   -2.408511   -0.245580
C       1.418806   -1.876042    1.172919
O       2.618958   -1.347699    1.791551
C       2.181173    0.009515    1.562185
C       0.754440   -0.471592    1.228726
H       0.927037    1.991323   -0.130806
H      -0.608672    1.840720   -0.999323
H      -0.600562    1.940068    0.774725
H      -0.998972   -0.394235    0.006059
H      -0.301087   -2.262363   -1.114146
H       1.018750   -2.100602   -2.287187
H       1.676044   -3.503497   -0.266646
H       2.706471   -2.094891   -0.522122
H       0.959995   -2.642504    1.806514
H       2.307872    0.638774    2.449062
H       2.708337    0.467896    0.714248
H       0.097350   -0.379161    2.097777
