25

C      -0.459621    1.594405   -0.175326
C      -0.147349    0.099310   -0.070466
C       0.683417   -0.414956   -1.248174
C       1.096935   -1.879484   -1.083418
O      -0.114236   -0.229047   -2.412469
C       0.579421   -0.130768   -3.632981
C      -0.348166    0.480621   -4.664847
O      -0.553351    1.838679   -4.349229
C      -1.467820    2.468436   -5.212018
H       0.454033    2.194229   -0.092328
H      -0.917582    1.817019   -1.142238
H      -1.140588    1.915231    0.618885
H       0.390392   -0.116952    0.860552
H      -1.079408   -0.478971   -0.038543
H       1.591677    0.206006   -1.338947
H       0.211196   -2.515379   -0.984728
H       1.675428   -2.231225   -1.943246
H       1.717088   -2.008202   -0.190393
H       1.469988    0.508764   -3.527307
H       0.914160   -1.117190   -3.994258
H       0.100452    0.375798   -5.668124
H      -1.303640   -0.069293   -4.666875
H      -1.125595    2.447539   -6.259703
H      -2.462679    1.997141   -5.169175
H      -1.556825    3.509552   -4.892184
