15

N      -0.114850    1.412474   -0.216279
C       0.013541   -0.011212    0.017829
C       0.843553   -0.442043    1.208058
N       1.402197    0.435390    1.966276
C       2.153493   -0.015579    3.045901
N       2.736045    0.786626    3.840686
N       2.187158   -1.426798    3.145385
N       1.586996   -2.293801    2.328037
N       0.910607   -1.842363    1.354391
H      -0.501740    1.854552    0.613349
H       0.811088    1.820352   -0.314629
H      -0.980109   -0.464168    0.135239
H       0.439447   -0.501143   -0.868094
H       3.243476    0.295412    4.576716
H       2.702392   -1.874533    3.890858
