17

C       0.295412    1.610514    0.041454
C       0.184223    0.105177   -0.047714
C       0.630547   -0.738348   -1.222592
C       1.960594   -0.240371   -1.815901
N       2.555396   -0.349666   -0.473163
C       3.575587    0.368916    0.059879
O       4.358588    1.036925   -0.583024
C       1.331120   -0.857649    0.131674
H       1.243618    1.980926   -0.356047
H      -0.511765    2.092390   -0.520107
H       0.222657    1.941944    1.082659
H      -0.729209   -0.296556    0.388909
H      -0.017346   -1.457118   -1.704474
H       2.412316   -0.943008   -2.522069
H       1.988632    0.767423   -2.240822
H       3.634424    0.241728    1.161095
H       1.354260   -1.672583    0.845490
