19

O       0.197811    1.326377    0.206341
C       0.062605   -0.041782   -0.161510
C      -1.362212   -0.508011   -0.131128
C      -2.024061   -0.994391    1.127779
C      -1.907353   -1.959758   -0.034730
C      -2.988119   -1.623825   -1.080734
C      -2.437275   -0.165070   -1.170786
C      -1.197963   -3.189373    0.058627
C      -0.604574   -4.236034    0.113747
H      -0.170177    1.423034    1.091116
H       0.463957   -0.108452   -1.178580
H       0.676984   -0.697456    0.475656
H      -1.359530   -1.209493    1.958690
H      -3.006675   -0.627361    1.417210
H      -2.853845   -2.180206   -2.009462
H      -4.020568   -1.747728   -0.740096
H      -3.124434    0.640498   -0.895594
H      -2.014525    0.059585   -2.152512
H      -0.082197   -5.158577    0.168808
