21

C      -0.469432    1.238473   -0.029393
O       0.152350   -0.028576    0.014626
C       0.655419   -0.585873   -1.165510
C       0.570968    0.121610   -2.505507
C       1.905520   -0.017342   -1.790538
O       2.452008    1.108820   -1.168652
C       0.499775   -2.079711   -1.149466
C       0.548967   -2.846701    0.146944
C      -0.753297   -2.717963   -0.605903
H       0.230294    2.028637   -0.323732
H      -1.335257    1.247162   -0.705874
H      -0.818630    1.436338    0.987283
H       0.369625   -0.476123   -3.388797
H       0.156615    1.122632   -2.535600
H       2.635750   -0.721457   -2.190998
H       2.807913    1.683205   -1.855314
H       0.951542   -2.563477   -2.010789
H       1.053702   -3.806499    0.152329
H       0.651537   -2.269941    1.057884
H      -1.500379   -2.056654   -0.183301
H      -1.149620   -3.588064   -1.117618
