16

C      -0.289867    1.451549   -0.052961
C       0.016217   -0.025453   -0.026263
O      -1.203300   -0.798314   -0.146683
C      -1.124038   -1.761055    0.809242
N      -0.119720   -1.815564    1.582689
C       0.775162   -0.736601    1.154439
C       1.903713   -1.207401    0.190790
C       1.134874   -0.557800   -0.976470
O       1.325993   -0.455827   -2.150202
H       0.627174    2.034205    0.077872
H      -0.735073    1.729347   -1.012471
H      -0.986775    1.712682    0.748987
H      -1.977273   -2.429671    0.835350
H       1.100216   -0.130579    2.001703
H       2.886728   -0.755244    0.356839
H       2.021772   -2.292207    0.120236
