17

O      -0.042900    1.432122   -0.124977
C       0.009289    0.056447   -0.023362
C       0.307655   -0.748450    1.390300
C      -0.396198   -1.844244    0.558517
C      -1.561994   -2.791030    0.181616
O      -2.019915   -1.769918   -0.785708
C      -1.308586   -0.785210    0.029794
O       0.577867   -2.066643   -0.505032
C       0.879136   -0.753876   -0.976962
H       0.849848    1.775851   -0.241988
H       1.354726   -0.901210    1.659888
H      -0.272141   -0.338606    2.216341
H      -1.281721   -3.722713   -0.312210
H      -2.310993   -2.951076    0.963923
H      -1.996468   -0.351929    0.762157
H       0.577777   -0.631723   -2.024428
H       1.951893   -0.536450   -0.880418
