17

C      -0.345765    1.490937   -0.059787
C       0.090453    0.045195    0.094323
O       1.225189   -0.273965   -0.796534
C       2.139393   -0.328320    0.333995
C       0.976477   -0.338475    1.260956
C       1.093494   -1.178525    2.288751
C       2.488176   -1.780815    2.282787
C       2.889825   -1.613692    0.777255
O       3.569665   -2.354429    0.131492
H       0.479607    2.177592    0.147535
H      -0.696271    1.666727   -1.080829
H      -1.166242    1.714339    0.630228
H      -0.747908   -0.637918   -0.085293
H       2.836276    0.521541    0.323160
H       0.296800   -1.543601    2.926034
H       3.218492   -1.254925    2.912466
H       2.513407   -2.834735    2.574851
