20

C       0.138461    1.552487    0.088658
C       0.049254    0.031738    0.048211
C      -1.400025   -0.441061    0.215202
N       0.660304   -0.703538   -1.134333
C       1.907319   -0.108143   -1.724273
C       2.822732   -1.016709   -0.860891
C       1.521549   -1.551444   -0.213340
C       1.002139   -0.747715    0.985938
O       1.261849   -0.701377    2.152625
H       1.167011    1.919778    0.121703
H      -0.358754    1.986926   -0.785597
H      -0.366725    1.922515    0.985203
H      -2.020103   -0.012365   -0.578311
H      -1.470037   -1.529718    0.142574
H      -1.796618   -0.129506    1.186551
H       1.959365   -0.302332   -2.799149
H       2.024725    0.967489   -1.571472
H       3.375022   -1.770560   -1.424298
H       3.513287   -0.514852   -0.179622
H       1.361450   -2.632875   -0.189564
