24

C      -0.360811    1.380828    0.123771
N      -0.060137   -0.035660    0.257734
C       1.237850   -0.507765   -0.215278
C       0.915810   -0.514723    1.244920
C       1.652602    0.451313    2.157373
C       0.504338   -1.831073    1.892146
C      -0.541069   -1.667347    3.001871
C      -1.028900   -3.001688    3.549363
O      -1.965464   -2.736512    4.584014
H       0.512388    2.048569    0.186128
H      -0.834278    1.545302   -0.849912
H      -1.075176    1.678103    0.898483
H       1.233042   -1.428788   -0.794728
H       1.952830    0.238590   -0.562679
H       2.025627    1.327438    1.623628
H       1.013077    0.801708    2.974484
H       2.516301   -0.049306    2.608254
H       0.095678   -2.479547    1.109004
H       1.398661   -2.332701    2.287904
H      -0.137283   -1.085717    3.838508
H      -1.401110   -1.112204    2.610464
H      -1.487524   -3.590391    2.737920
H      -0.172890   -3.584950    3.928735
H      -2.290526   -3.577752    4.917320
