20

C      -0.790165    1.109429    0.181380
C      -0.060338   -0.219154   -0.098088
C       0.694273   -0.228239   -1.436692
C       1.831455    0.784332   -1.585242
N       3.050491    0.379905   -0.904068
C       3.136813   -0.105808    0.359113
C       2.188775   -0.525911    1.237375
C       0.736365   -0.618908    1.155432
O       0.099952   -1.020647    2.121564
H      -0.092779    1.939118    0.336674
H      -1.450696    1.373894   -0.651668
H      -1.393688    1.010056    1.086082
H      -0.834893   -0.991526   -0.167464
H       1.090724   -1.229880   -1.639457
H      -0.034367   -0.015840   -2.228148
H       2.084754    0.889706   -2.644717
H       1.504841    1.775302   -1.236609
H       3.908395    0.726204   -1.298297
H       4.169999   -0.177595    0.692354
H       2.564904   -0.872341    2.194099
