21

C       0.091168    1.566910    0.154157
C      -0.036233    0.048494   -0.003567
C       0.594335   -0.498113   -1.288268
C       0.783283   -2.035219   -1.255440
C       1.257062   -2.590708   -2.571532
C       1.126815   -1.943791   -3.728242
C       0.446762   -0.604092   -3.854052
C      -0.187402   -0.136800   -2.547965
O      -1.240166    0.458941   -2.529513
H       1.142078    1.879094    0.152536
H      -0.422584    2.086767   -0.657781
H      -0.349673    1.898973    1.099187
H       0.436600   -0.449638    0.852174
H      -1.095188   -0.232487    0.012154
H       1.599026   -0.066825   -1.420714
H       1.496697   -2.286581   -0.461222
H      -0.162605   -2.515063   -0.962149
H       1.725846   -3.571383   -2.553049
H       1.496484   -2.389220   -4.648397
H       1.169774    0.162786   -4.174287
H      -0.333652   -0.616995   -4.622909
