15

N      -0.018608    1.404606   -0.103240
C       0.003689    0.026467   -0.032750
C      -1.171688   -0.680261    0.046033
N      -2.417384   -0.011910    0.115840
C      -1.179796   -2.116644    0.126236
O      -2.160276   -2.817034    0.240025
O       0.072679   -2.744530    0.093602
C       1.209003   -2.039611   -0.024961
C       1.241763   -0.696319   -0.091260
H       0.829785    1.874643    0.175444
H      -0.854484    1.812144    0.298827
H      -2.630261    0.485749   -0.744624
H      -3.145849   -0.702662    0.271549
H       2.081895   -2.679431   -0.061901
H       2.188673   -0.179818   -0.185039
