21

O      -0.061407    1.446990    0.038209
C       0.015117    0.024769    0.022870
C      -1.379022   -0.509806    0.013302
C      -2.472744   -0.234295   -1.087152
C      -2.613120   -1.762832   -1.297987
C      -1.799785   -2.028545   -0.005313
C      -2.619715   -1.792664    1.288991
C      -2.478335   -0.259672    1.114212
C      -3.405450    0.321479    0.017725
H       0.834838    1.795634    0.047299
H       0.560513   -0.333698   -0.867133
H       0.555813   -0.353124    0.907661
H      -2.308073    0.387460   -1.967697
H      -3.624744   -2.179981   -1.354388
H      -2.055810   -2.087928   -2.182253
H      -1.095380   -2.862530   -0.013125
H      -3.631596   -2.210925    1.330588
H      -2.066903   -2.138125    2.168346
H      -2.318211    0.341572    2.009719
H      -3.373522    1.414423    0.030400
H      -4.452000   -0.003417    0.011325
