12

C       0.202980   -1.123942   -0.005866
C       0.065050    0.071958    0.002352
C      -0.113966    1.464874    0.012154
C      -1.241435    2.249390    0.032554
C      -0.797710    3.594696    0.033113
C       0.571433    3.543886    0.012901
O       1.001025    2.251405    0.000009
C       1.547565    4.562400    0.003973
N       2.328670    5.418097   -0.002951
H       0.325695   -2.179232   -0.013143
H      -2.257842    1.891186    0.045450
H      -1.397769    4.490245    0.046488
