21

C      -0.226005    1.478441   -0.002922
C       0.058671   -0.037209    0.015676
C       0.724940   -0.459167   -1.217021
C       1.286464   -0.799940   -2.224555
C       0.856962   -0.498733    1.264403
C       2.221660    0.167852    1.393827
C      -0.016606   -0.524084    2.546963
O      -0.107763   -1.960102    2.517676
C       0.835493   -2.040935    1.429212
H       0.694722    2.053677   -0.125768
H      -0.890096    1.729495   -0.833664
H      -0.709891    1.791072    0.927662
H      -0.909284   -0.556152    0.061404
H       1.771005   -1.104564   -3.119071
H       2.130357    1.246105    1.559675
H       2.773116   -0.249560    2.241854
H       2.819560    0.014599    0.489922
H       0.492963   -0.161741    3.450252
H      -1.003404   -0.048120    2.482766
H       0.444231   -2.615770    0.582100
H       1.790993   -2.479017    1.746962
