21

C      -0.083786    1.576730   -0.060870
C      -0.000493    0.052085   -0.055006
C      -1.369292   -0.569652    0.228494
C       0.686516   -0.625753   -1.253925
C       2.141081   -0.221224   -1.357367
C       1.760713   -1.228116   -0.329190
O       2.387118   -2.460852   -0.330379
C       1.122961   -0.570629    0.884087
O       1.989450    0.288707    1.590317
H       0.890996    2.041906   -0.219370
H      -0.760143    1.922060   -0.850674
H      -0.475584    1.951081    0.892902
H      -2.097032   -0.286315   -0.540401
H      -1.315151   -1.664014    0.242073
H      -1.762520   -0.239417    1.197233
H       0.164113   -1.085789   -2.085218
H       2.662847   -0.659046   -2.202404
H       2.485362    0.769634   -1.078588
H       1.784610   -3.106983    0.054104
H       0.679044   -1.320958    1.557250
H       1.508789    0.658869    2.337722
