20

C       0.014845    1.526623   -0.010410
C       1.320509    0.763890   -0.014418
C       0.007205    0.023041    0.019465
C      -0.393603   -0.718961    1.284461
C       0.070031   -2.182227    1.194560
C      -0.395839   -2.799048   -0.127270
O       0.057620   -2.054823   -1.245676
C      -0.428296   -0.722149   -1.227795
H      -0.267784    2.056050    0.893937
H      -0.287613    2.025140   -0.926339
H       1.899370    0.743974   -0.931904
H       1.922449    0.780848    0.888486
H       0.022443   -0.227518    2.170934
H      -1.487835   -0.691215    1.391547
H       1.164536   -2.226789    1.238485
H      -0.318767   -2.769685    2.034325
H      -0.001609   -3.811505   -0.254599
H      -1.499122   -2.861956   -0.139653
H      -1.531974   -0.727080   -1.290247
H      -0.042795   -0.240767   -2.132033
