19

O       0.410215    0.171300   -0.678054
C       0.208823    1.245804   -0.189523
C      -0.996434    1.879336    0.537273
C      -0.193055    3.206626    0.653098
C       0.645085    3.351920    1.950432
C       1.793730    2.587970    1.271661
C       3.265828    2.825517    1.440900
C       2.659543    1.506173    1.853581
C       1.036362    2.528480   -0.074831
H      -1.867379    1.943249   -0.123715
H      -1.308243    1.396458    1.468389
H      -0.681492    4.097895    0.263336
H       0.901810    4.390514    2.179945
H       0.213374    2.896310    2.847577
H       3.884782    2.849275    0.549668
H       3.577804    3.514315    2.220197
H       2.562129    1.297055    2.914218
H       2.858913    0.633239    1.240738
H       1.546645    2.906634   -0.962139
