20

C       0.112180    1.436882   -0.062112
C      -0.045838   -0.065056   -0.053814
C      -0.575976   -0.763510    1.147480
N       0.854127   -0.908938    0.813383
C       1.169129   -2.010281   -0.159766
C      -0.095442   -2.302894   -1.006667
C       0.058857   -0.814482   -1.392259
C       1.622330   -1.133970   -1.367646
O       2.578735   -0.144943   -1.156463
H       0.914746    1.744782   -0.738226
H      -0.814949    1.914463   -0.399136
H       0.337671    1.810138    0.941213
H      -0.742338   -0.162659    2.038176
H      -1.237131   -1.618768    1.076348
H       1.789004   -2.790439    0.280941
H       0.136418   -2.970214   -1.838721
H      -1.013108   -2.640020   -0.528565
H      -0.436091   -0.375470   -2.257799
H       1.926899   -1.714418   -2.241444
H       2.504473    0.109795   -0.226484
