15

C       0.005690    1.484561   -0.000155
C      -0.076769   -0.005271    0.058731
C      -1.158425   -0.757591   -0.202139
C      -1.062805   -2.192180   -0.097066
C       0.264124   -2.659960    0.299011
N       1.284662   -1.921113    0.543622
O       1.126353   -0.539460    0.423929
N      -2.084960   -2.944512   -0.341362
O      -1.772260   -4.304107   -0.179781
H       0.767294    1.798544   -0.721667
H      -0.956576    1.908118   -0.292272
H       0.293470    1.891808    0.974774
H      -2.094806   -0.297587   -0.488708
H       0.449075   -3.721798    0.408677
H      -2.609366   -4.729656   -0.390258
