20

C       0.021537    1.467932   -0.043064
C       0.024392    0.011562   -0.028853
C       0.033079   -1.192733   -0.010392
C       0.026476   -2.656567   -0.011811
C      -1.402577   -3.191624    0.221051
C       0.664669   -3.192920   -1.314223
C       0.874768   -4.702860   -1.330133
O       1.599113   -5.016650   -2.511009
H       0.647680    1.876512    0.758076
H       0.404698    1.858325   -0.992529
H      -0.989957    1.866825    0.093131
H       0.650814   -2.997261    0.827908
H      -1.406357   -4.280379    0.326392
H      -1.829758   -2.761286    1.130483
H      -2.053685   -2.923791   -0.617108
H       0.046048   -2.904305   -2.171536
H       1.640151   -2.716940   -1.456411
H       1.431904   -5.008985   -0.428086
H      -0.090827   -5.230459   -1.311057
H       1.695686   -5.972100   -2.558885
