15

C      -0.012010    1.492446   -0.016021
C      -0.026268    0.000379    0.013776
N      -0.054318   -0.683049   -1.100716
O      -0.060470   -2.051449   -0.702036
C      -0.035308   -2.111325    0.626892
N      -0.090464   -3.341780    1.204578
C      -0.009016   -0.844172    1.172321
C       0.033314   -0.503821    2.536246
C       0.076477   -0.226914    3.709580
H       0.879373    1.879374    0.487872
H      -0.021457    1.848290   -1.047559
H      -0.883272    1.896322    0.509347
H       0.225280   -4.114094    0.637825
H       0.195646   -3.375986    2.171206
H       0.104034    0.025861    4.740183
