21

C       0.097316    1.504782   -0.163932
C      -0.080905   -0.010847    0.004565
C       0.633023   -0.539932    1.216133
C       0.292693   -0.202880    2.679100
C       0.600648   -1.680683    3.101350
C       1.009706   -1.958082    1.662405
O       0.804927   -3.145242    0.960782
C       2.079021   -1.012804    1.176407
O       2.604352   -1.328581   -0.078749
H       1.154415    1.760492   -0.286458
H      -0.442853    1.867415   -1.043899
H      -0.280960    2.051069    0.707057
H      -1.149917   -0.252306    0.070200
H       0.305472   -0.523412   -0.882020
H       0.919263    0.565119    3.144361
H      -0.756608    0.063500    2.826489
H       1.363886   -1.836957    3.871882
H      -0.307686   -2.218991    3.383208
H       1.368356   -3.825041    1.352175
H       2.829831   -0.587714    1.844804
H       2.249002   -2.198031   -0.311578
