15

C       0.865114    0.581984    0.189707
O      -0.522347    0.863215    0.026619
C      -1.344372   -0.177456    0.198511
C      -1.154800   -1.499316    0.506233
C      -2.477219   -2.029882    0.528436
N      -3.404939   -1.137260    0.262701
N      -2.703665    0.026148    0.054680
C      -3.330688    1.239385   -0.260619
O      -4.514311    1.382045   -0.376212
H       1.196350   -0.166501   -0.538842
H       1.388607    1.522496    0.018456
H       1.070073    0.221105    1.203853
H      -0.226004   -2.011473    0.687436
H      -2.768498   -3.050627    0.734361
H      -2.584797    2.041140   -0.382973
