17

O       0.059539    1.392919    0.348887
C       0.012624   -0.012657    0.342363
C      -1.384572   -0.494544   -0.093334
O      -1.727723    0.133672   -1.336168
C      -1.465742   -1.950343   -0.159653
C      -1.468260   -3.152479   -0.245804
C      -1.544951   -4.604333   -0.296916
C      -2.737962   -5.155596    0.492157
O      -2.697642   -6.174750    1.123701
H      -0.362464    1.669848   -0.475252
H       0.763188   -0.451774   -0.337182
H       0.232774   -0.362957    1.355377
H      -2.116055   -0.105303    0.624206
H      -1.288443   -0.359592   -2.038960
H      -1.677307   -4.936246   -1.338209
H      -0.634894   -5.085255    0.075988
H      -3.658845   -4.538133    0.419289
