20

C      -0.693489    1.246325    0.218831
C       0.003751   -0.081676   -0.068860
C       0.993125   -0.125169   -1.289440
C       2.127844   -0.523492   -0.325776
C       3.216116   -1.550687   -0.523431
C       3.576907   -0.103856   -0.340071
C       1.184837   -0.447072    0.823305
N       1.388851   -0.634951    2.060301
O       0.197640   -0.473839    2.802948
H       0.029138    2.068323    0.257936
H      -1.422673    1.475150   -0.565726
H      -1.212753    1.208394    1.179277
H      -0.735374   -0.889926   -0.098855
H       0.748847   -0.867005   -2.053672
H       1.130942    0.847223   -1.770719
H       3.399772   -2.235215    0.297596
H       3.316519   -1.984029   -1.513477
H       3.925291    0.452825   -1.204216
H       4.007948    0.203140    0.606721
H       0.500075   -0.631194    3.703370
