25

C       0.124818    1.575525    0.004238
C       0.023390    0.049135    0.065001
C      -1.416224   -0.466027   -0.065773
C      -1.512707   -1.984403   -0.003931
C      -1.237966   -2.739199    1.327596
C      -2.344743   -3.754327    0.937240
C      -2.888042   -2.710434   -0.088048
C      -4.081028   -1.919864    0.441594
O      -3.137020   -3.173261   -1.404445
H       1.162120    1.912410    0.097964
H      -0.265995    1.960405   -0.944380
H      -0.450936    2.043253    0.810895
H       0.636995   -0.391877   -0.731647
H       0.451915   -0.309092    1.010055
H      -2.029599   -0.018416    0.728223
H      -1.840224   -0.115226   -1.016831
H      -0.891287   -2.421924   -0.794298
H      -0.231448   -3.130366    1.487891
H      -1.517713   -2.139403    2.200014
H      -1.936747   -4.619041    0.408002
H      -3.025586   -4.098678    1.721075
H      -3.896616   -1.529957    1.447193
H      -4.318264   -1.079705   -0.217780
H      -4.964491   -2.568579    0.502912
H      -4.015164   -3.569095   -1.425339
