18

C      -0.005551    1.572261    0.079918
C      -0.036288    0.052285   -0.093482
C       0.779084   -0.487256   -1.293506
C       0.574655   -2.041532   -1.474177
N      -0.391487   -2.198106   -2.566702
C      -0.501389   -1.050719   -3.110041
N       0.269090   -0.019332   -2.593352
C       2.198669   -0.137893   -1.135860
N       3.311086    0.132098   -0.975999
H       1.018224    1.936861    0.206349
H      -0.448511    2.094310   -0.775771
H      -0.579737    1.865406    0.963090
H       0.351293   -0.430304    0.810962
H      -1.065551   -0.300367   -0.226521
H       1.515514   -2.534337   -1.741024
H       0.206823   -2.498648   -0.551083
H      -1.129970   -0.850845   -3.973000
H      -0.053200    0.934182   -2.670053
