18

C       0.103962    1.468692   -0.546270
C       0.030659    0.015176   -0.134939
C       1.216642   -0.846629   -0.244868
O       0.788554   -0.339609    1.024875
C      -1.348285   -0.657374   -0.148170
C      -2.330213   -0.041826    0.884389
O      -3.530226   -0.773481    0.970946
C      -1.954243   -0.627824   -1.481566
N      -2.468246   -0.580068   -2.516328
H       1.138796    1.815566   -0.509295
H      -0.275871    1.604563   -1.563510
H      -0.486473    2.100287    0.124523
H       1.100574   -1.920400   -0.383714
H       2.147192   -0.427318   -0.623313
H      -1.216357   -1.706758    0.136260
H      -1.852143   -0.097072    1.865666
H      -2.511184    1.015214    0.647090
H      -4.019084   -0.652084    0.149038
