17

C       0.095530    1.575985   -0.119915
C      -0.056565    0.070418    0.090146
O       0.512956   -0.632497   -1.038018
C       1.480219   -1.636239   -0.659832
C       1.577012   -1.476396    0.822343
C       0.707725   -0.517460    1.228086
N       0.840615   -0.447528    2.591201
C       1.798820   -1.379200    2.924097
N       2.265718   -2.022911    1.873314
H       1.152806    1.851427   -0.160651
H      -0.380456    1.870076   -1.059262
H      -0.383868    2.130417    0.694904
H      -1.130427   -0.174886    0.142134
H       1.118242   -2.627071   -0.969527
H       2.420150   -1.441543   -1.192999
H       0.355664    0.158010    3.231643
H       2.107519   -1.532862    3.947539
