16

C       0.013826    1.535991   -0.103527
O       1.282483    2.087272    0.276915
C       2.265813    1.081621    0.324666
O       2.263117    0.327890   -0.886666
C       1.272601   -0.662703   -0.623451
C       1.593941   -1.229615    0.773350
C       1.942374    0.048159    1.417097
N       0.513415   -0.401237    1.417863
C       0.041087    0.023750    0.051469
H      -0.751990    1.978601    0.542947
H      -0.208071    1.807871   -1.144457
H       3.227351    1.582415    0.439205
H       1.141508   -1.301701   -1.494009
H       1.862862   -2.227091    1.096343
H       2.396338    0.116475    2.397219
H      -0.921265   -0.439268   -0.172885
