20

N      -0.758189    0.604377   -0.273625
H      -0.410391   -0.214869    0.238791
H      -0.089535    0.870347   -0.998091
H      -1.640044    0.319794   -0.709684
C      -1.045903    1.696108    0.766686
C      -1.939480    1.029025    1.773669
C      -1.375469   -0.175663    2.577024
C      -2.374303    0.242410    3.700619
C      -2.348052    1.689222    3.110057
C      -3.790617   -0.436736    3.493682
O      -4.427622   -0.632866    4.532759
O      -4.090751   -0.669902    2.289599
H      -0.068848    1.996790    1.157824
H      -1.496782    2.531000    0.223019
H      -2.870300    0.661578    1.316979
H      -1.533949   -1.174433    2.158795
H      -0.323076   -0.026901    2.864171
H      -2.047222    0.130940    4.733292
H      -1.539382    2.300545    3.531225
H      -3.278454    2.261127    3.117684
