17

O      -0.231428    0.062835   -0.122972
C      -0.077019    1.255917   -0.105399
C       1.267955    1.935013    0.075498
C       1.537013    2.873809   -1.121398
O       0.875112    4.079395   -0.793236
C       1.150261    4.340315    0.571045
C       1.285963    2.946189    1.275431
C       0.267873    2.697692    2.286828
C      -0.574240    2.500745    3.121755
H      -0.926002    1.955605   -0.265119
H       2.025690    1.157880    0.188401
H       2.621184    3.027289   -1.246452
H       1.127739    2.510783   -2.068281
H       2.091418    4.899382    0.677780
H       0.333747    4.940369    0.975585
H       2.268662    2.883332    1.753602
H      -1.317888    2.317944    3.857717
