19

C      -0.040587    1.568431   -0.039028
C       1.475003    1.881815    0.026732
C       2.068346    1.514691    1.409740
C       1.946072   -0.047783    1.388113
C       0.757071   -0.571658    2.159198
C      -0.342395   -0.543642    1.403902
C      -0.030692    0.002592    0.030143
C       1.508546   -0.247074   -0.101065
O       2.027405    0.860552   -0.815269
H      -0.613878    2.025199    0.771143
H      -0.444051    1.919277   -0.992704
H       1.761214    2.863366   -0.353488
H       3.114792    1.828588    1.452106
H       1.533585    1.970472    2.246380
H       2.891671   -0.530818    1.642312
H       0.809627   -0.879114    3.197475
H      -1.340589   -0.824321    1.720347
H      -0.623263   -0.441249   -0.772330
H       1.807970   -1.182747   -0.571640
