11

O      -0.002985    1.506895    0.057019
C       0.017160    0.111584    0.066515
C       0.700526   -0.429404   -1.204895
O       1.141736    0.330661   -2.023972
C       0.709181   -0.442558    1.234228
C       1.288007   -0.910516    2.185246
C       1.939829   -1.439952    3.262194
N       2.493951   -1.895407    4.175557
H       0.518781    1.769115   -0.720093
H      -1.013132   -0.286811    0.061820
H       0.756199   -1.528569   -1.305857
