22

C      -0.273052    1.385900    0.038614
C       0.839607    0.372802   -0.260446
C       1.189464   -0.446285    0.968008
C       0.569632   -1.773111    1.290047
C      -0.457955   -2.456150    0.411753
N       1.993090   -1.674914    0.944665
C       2.477685   -2.208009   -0.328979
C       2.780938   -3.633585   -0.217478
C       3.018709   -4.808742   -0.139974
H       0.009795    2.049465    0.862921
H      -0.483673    2.010136   -0.834843
H      -1.201034    0.880325    0.324590
H       0.534696   -0.262188   -1.096754
H       1.737841    0.908347   -0.595582
H       1.449532    0.188687    1.817070
H       0.427590   -2.002124    2.346290
H      -0.428232   -2.135614   -0.631424
H      -0.315489   -3.541626    0.430627
H      -1.463546   -2.245700    0.790862
H       1.793825   -2.065327   -1.179404
H       3.395961   -1.662469   -0.581538
H       3.236323   -5.845416   -0.068078
