20

C       0.211514    1.503668   -0.554296
C       0.003174    0.061800   -0.141371
C      -1.402482   -0.498109   -0.260285
C      -2.377039    0.112061    0.753700
C      -3.800966   -0.400640    0.547321
N      -4.577181   -0.405913    1.670246
O      -4.226408   -0.746551   -0.538342
C       1.146752   -0.862547   -0.174911
O       0.688618   -0.321243    1.066804
H       1.252669    1.798168   -0.402717
H      -0.042234    1.643204   -1.610553
H      -0.416782    2.181317    0.032688
H      -1.792939   -0.334076   -1.269394
H      -1.368427   -1.581719   -0.109849
H      -2.030826   -0.085821    1.773924
H      -2.414970    1.203416    0.643122
H      -4.208232   -0.196633    2.580634
H      -5.524629   -0.737811    1.593798
H       0.976586   -1.929883   -0.312329
H       2.121128   -0.505917   -0.508061
