16

O      -0.066747    1.415726    0.109294
C       0.035176    0.042049    0.089147
C       0.962565   -0.821477    1.021493
C       0.670093   -1.944936   -0.021544
N      -0.807604   -2.164654   -0.075792
C      -1.572933   -1.751820    1.112207
C      -1.281478   -0.737403    0.073557
C       0.775157   -0.762174   -1.027981
O       1.336190   -0.488838   -2.042686
H       0.670141    1.779556   -0.396111
H       2.003306   -0.492988    0.984959
H       0.656831   -0.967083    2.055319
H       1.258922   -2.853827   -0.098172
H      -2.571698   -2.178161    1.116085
H      -1.112992   -1.712130    2.092381
H      -2.051774   -0.387363   -0.606751
