17

C       0.004683    1.474433   -0.056677
N      -0.367987    0.085429   -0.305031
C       0.431039   -0.666446   -1.153158
C       0.699177   -2.000570   -1.142287
C       0.354790   -3.158141   -0.285279
O       1.481234   -2.247788   -2.288072
C       1.619088   -1.040013   -2.851909
O       2.343551   -0.963631   -3.968665
N       1.037611   -0.057878   -2.255398
H       0.951785    1.587050    0.493549
H       0.107395    1.989287   -1.012598
H      -0.792767    1.954622    0.516316
H      -0.612856   -0.414601    0.537759
H      -0.146728   -2.808146    0.622258
H      -0.322605   -3.868593   -0.777645
H       1.245527   -3.717048    0.027432
H       2.657131   -1.850004   -4.184717
