20

O      -0.106256    1.436744   -0.055900
C       0.092292    0.029148    0.036454
C      -1.288528   -0.587513   -0.012722
C      -1.933270   -1.228739   -1.219321
C      -1.040980   -1.909707   -2.266150
C      -0.507225   -3.178808   -1.590950
C       0.455181   -3.109129   -0.460357
N      -0.983806   -3.241385   -0.193439
C      -1.763898   -2.033954    0.053807
H       0.756599    1.860761   -0.022786
H       0.727219   -0.319862   -0.789239
H       0.598343   -0.232750    0.979726
H      -1.970066    0.059154    0.537399
H      -2.899891   -0.863787   -1.549428
H      -1.646381   -2.185629   -3.134023
H      -0.240227   -1.260677   -2.638510
H      -0.571372   -4.105779   -2.156508
H       1.037355   -3.991875   -0.205623
H       0.957429   -2.177715   -0.238949
H      -2.601075   -2.220421    0.717701
