22

C      -0.683511    1.050828    0.928776
O      -0.919237   -0.329806    1.133751
C      -1.540948   -0.940586    0.046250
C      -0.713101   -1.393927   -1.137615
C      -1.344205   -2.418890   -0.223289
N      -0.530133   -3.382615    0.459859
C       0.481342   -3.025892    1.451698
C      -0.760734   -3.749918    1.859577
C      -1.804162   -3.077292    2.723928
H      -0.207853    1.435189    1.833840
H      -0.022324    1.222579    0.068272
H      -1.623884    1.595964    0.759149
H      -2.536319   -0.540505   -0.161753
H      -1.080251   -1.263069   -2.149789
H       0.360110   -1.276860   -1.022705
H      -2.239455   -2.898707   -0.612510
H       1.425065   -3.558808    1.354833
H       0.562706   -1.988357    1.755928
H      -0.683382   -4.825921    2.016115
H      -1.779892   -1.991571    2.614580
H      -2.811075   -3.432612    2.475609
H      -1.623397   -3.319343    3.777195
