16

C      -0.308802    1.635356   -0.183981
C       0.002729    0.162960   -0.024144
C       0.750790   -0.575734   -1.235526
O       0.988670    0.149702   -2.403864
C       1.896422   -0.789857   -0.242230
C       3.054132   -1.235277    0.362041
N       2.992829   -0.841331    1.671277
N       1.868792   -0.198089    1.921593
N       1.235416   -0.165066    0.745603
H       0.562474    2.194403   -0.536153
H      -1.115775    1.761971   -0.911324
H      -0.628179    2.068275    0.767834
H      -0.858398   -0.394125    0.355007
H       0.240312   -1.491995   -1.539901
H       1.634112    0.839223   -2.213942
H       3.902541   -1.779448   -0.016783
