19

O      -0.053390    1.368775   -0.062184
C       0.026628   -0.016556   -0.020541
C      -1.200449   -0.890505    0.006054
C      -1.066597   -2.020883   -1.010889
C       0.232246   -1.690324   -1.790717
C       1.077000   -0.825925   -0.828728
C       1.751091   -1.649659    0.281962
O       0.724388   -1.929470    1.245972
C      -0.210525   -0.882818    1.175487
H       0.652347    1.730374    0.485444
H      -2.167114   -0.441032    0.206364
H      -0.987596   -2.987846   -0.504029
H      -1.936019   -2.065780   -1.671848
H       0.763917   -2.582745   -2.136210
H      -0.014332   -1.092972   -2.674976
H       1.786454   -0.178227   -1.348230
H       2.159408   -2.606498   -0.056483
H       2.560438   -1.072575    0.756655
H      -0.531811   -0.495022    2.136843
