18

C       0.031952    1.387669   -0.107115
O      -0.028842    0.005812    0.205945
C      -1.301180   -0.572148    0.082063
C      -2.252603    0.000305    1.035302
C      -2.999191    0.508143    1.830804
C      -1.865860   -0.928182   -1.353008
C      -0.709768   -1.948381   -1.501460
C      -1.305636   -2.126557   -0.082434
N      -2.671393   -2.054074   -0.737933
H       1.070796    1.693744    0.031469
H      -0.261271    1.578828   -1.149092
H      -0.611274    1.980075    0.555589
H      -3.662405    0.945373    2.536304
H      -2.293336   -0.254104   -2.096445
H      -0.920716   -2.770012   -2.184903
H       0.302886   -1.559844   -1.572342
H      -1.063845   -2.866741    0.680851
H      -3.349873   -1.668049   -0.073697
