18

C      -0.008318    1.510900   -0.009833
C      -0.037295    0.016060    0.065290
O      -0.008469   -0.618129   -1.200552
C      -0.317543   -1.970820   -0.909961
C       0.938615   -2.652733   -0.372251
N       1.386323   -1.956836    0.852854
C       0.572137   -0.808431    1.184399
C      -0.931541   -0.849119    0.922191
O      -1.312357   -1.943149    0.110137
H       0.935680    1.863158   -0.438197
H      -0.829256    1.877740   -0.634100
H      -0.111433    1.945017    0.988496
H      -0.725981   -2.447872   -1.803295
H       0.719989   -3.706075   -0.167505
H       1.716835   -2.613176   -1.146617
H       1.378239   -2.600419    1.634753
H       0.922447   -0.259217    2.053511
H      -1.713283   -0.512512    1.592177
