17

C      -0.023865    1.402474   -0.178356
N      -0.014621   -0.018901    0.066904
C      -1.063626   -1.032675    0.021420
C      -1.459820   -1.603065   -1.363537
C      -0.329571   -1.658971   -2.308222
N      -0.411639   -2.705024   -1.271452
C       0.034730   -2.109295    0.065229
C       1.037028   -0.922314    0.050773
O       2.227409   -0.758459    0.003389
H       1.014291    1.743755   -0.185142
H      -0.482041    1.640654   -1.146474
H      -0.568564    1.938896    0.606319
H      -1.856504   -0.942444    0.763670
H      -2.480109   -1.834994   -1.651112
H      -0.538249   -2.053736   -3.297878
H       0.467725   -0.922478   -2.278665
H       0.122894   -2.870942    0.835757
