18

C       0.033480    1.423606   -0.244040
N      -0.113514   -0.017877   -0.248494
C      -1.244032   -0.641638    0.195485
O      -2.224567   -0.058628    0.624156
C      -1.172813   -2.094215    0.105701
C      -1.154361   -3.299343    0.060733
C      -1.150124   -4.764256   -0.032962
C      -2.566633   -5.317622   -0.241319
O      -0.245036   -5.225701   -1.031338
H       0.851821    1.739480    0.412776
H       0.225654    1.805587   -1.252704
H      -0.901582    1.845272    0.125775
H       0.649466   -0.595738   -0.560921
H      -0.748887   -5.165855    0.905601
H      -2.997881   -4.927990   -1.169183
H      -2.523093   -6.407986   -0.301760
H      -3.222841   -5.027795    0.583884
H      -0.531901   -4.857316   -1.874716
