20

C       0.061274    1.568405   -0.271438
C      -0.020555    0.104564    0.196692
C      -1.399572   -0.483074    0.122142
C      -2.254534   -0.725023    1.171457
O      -2.145995   -0.558093    2.517771
N      -3.426286   -1.242052    0.694821
C      -3.357452   -1.348828   -0.686939
C      -4.493766   -1.886876   -1.488936
C      -2.120686   -0.885370   -1.054529
H       1.087410    1.947881   -0.216163
H      -0.279582    1.662184   -1.307145
H      -0.576882    2.212084    0.342505
H       0.672829   -0.499999   -0.402371
H       0.361500    0.038076    1.226517
H      -1.274554   -0.194623    2.703045
H      -4.200133   -1.512553    1.276597
H      -5.407080   -1.287539   -1.376789
H      -4.228683   -1.884777   -2.548935
H      -4.749129   -2.919420   -1.215636
H      -1.751365   -0.837909   -2.069101
