16

C       0.061299    1.479601   -0.035494
C       1.320819    0.683850    0.032792
N      -0.022274    0.015186   -0.044453
C      -0.172687   -0.610510   -1.390785
C       1.123333   -0.265710   -2.055057
C       1.978259    0.433462   -1.271838
C       3.143060    0.670500   -2.069203
C       2.873062    0.093723   -3.275838
O       1.627473   -0.483176   -3.288658
H      -0.347894    1.942599    0.859250
H      -0.125804    2.021638   -0.960781
H       1.859598    0.576988    0.969677
H      -0.324114   -1.690208   -1.267512
H      -1.058217   -0.210964   -1.898859
H       4.050847    1.191045   -1.807070
H       3.432577    0.002400   -4.192058
