24

C       1.755739    0.993208    0.054210
C       0.355932    0.456138   -0.271215
C       0.305976   -0.531781   -1.440272
N       1.376996   -1.545661   -1.493640
C      -0.008674   -1.975752   -1.221287
C      -0.282897   -2.591883    0.129463
C      -0.143205    0.085641   -2.770128
C       0.745709    1.242425   -3.237858
O      -0.149819   -0.950799   -3.751120
H       2.437937    0.164348    0.256111
H       2.178232    1.570614   -0.773566
H       1.723622    1.645073    0.933120
H      -0.049617   -0.021364    0.625805
H      -0.325396    1.289059   -0.488210
H       1.590350   -1.737278   -2.470668
H      -0.522492   -2.459796   -2.047315
H       0.337622   -2.145528    0.909863
H      -1.336111   -2.478533    0.411430
H      -0.058499   -3.663915    0.105612
H      -1.168982    0.466164   -2.627701
H       0.723669    2.079795   -2.536174
H       1.781866    0.911049   -3.355299
H       0.393869    1.621293   -4.205323
H      -0.273230   -0.543974   -4.613309
