16

C       0.129737    1.299457    0.449113
N      -0.074339    0.161729   -0.451376
C      -1.212570   -0.637731   -0.216699
C      -1.172781   -1.961563    0.110442
N      -2.334347   -2.660983    0.219391
C      -3.622507   -2.103828    0.076384
O      -4.602712   -2.798337    0.236162
N      -3.647737   -0.753365   -0.259775
C      -2.530100   -0.103363   -0.399826
H       1.016915    1.850827    0.127237
H      -0.723113    1.980304    0.384962
H       0.254066    1.011309    1.504777
H       0.762168   -0.406665   -0.502278
H      -0.252827   -2.513372    0.271945
H      -2.322155   -3.645605    0.443433
H      -2.612965    0.944722   -0.693175
