13

O       0.186532    1.388774    0.108352
C       0.088388    0.002720    0.065565
C      -1.309968   -0.726543    0.025753
C      -0.734450   -1.761702   -1.016384
O      -1.489730   -2.205694   -2.095748
C       0.283197   -0.658781   -1.296386
O       0.606195   -0.164928   -2.347373
H       0.233647    1.698578   -0.805853
H       0.711905   -0.433038    0.853387
H      -1.671577   -1.135898    0.968324
H      -2.066612   -0.089705   -0.437341
H      -0.308833   -2.621819   -0.488776
H      -1.308840   -1.608617   -2.833816
