23

C      -0.006696    1.531740   -0.116876
C      -0.004538    0.019312    0.087551
O       0.628966   -0.344441    1.312595
C      -1.423722   -0.585237   -0.002272
O      -2.060906   -0.195755   -1.216049
C      -1.417887   -2.105267    0.195638
C      -2.799706   -2.718223    0.268433
C      -3.516800   -3.177461   -0.974264
C      -3.000011   -4.191841    0.016586
H       1.014488    1.921520   -0.094244
H      -0.475161    1.791990   -1.068026
H      -0.580388    2.024624    0.679417
H       0.612346   -0.450813   -0.691841
H       0.227612    0.181699    2.013289
H      -2.033852   -0.125052    0.789942
H      -1.689737   -0.731848   -1.925185
H      -0.853735   -2.566635   -0.630424
H      -0.850312   -2.322596    1.106552
H      -3.433482   -2.284868    1.039077
H      -4.586924   -3.018585   -1.045573
H      -2.997022   -3.090333   -1.922957
H      -2.131807   -4.779638   -0.264509
H      -3.716323   -4.728959    0.628481
