19

C      -0.065380    1.454183    0.051271
C      -0.018144   -0.030577   -0.014982
C      -0.021631   -0.892525   -1.035827
C       0.045532   -2.269646   -0.362216
C      -0.993534   -2.069861    0.789407
C       0.052325   -0.970648    1.224003
C       1.139509   -1.998781    0.722058
C       0.074728   -0.393973    2.542795
C       0.093624    0.083889    3.647072
H       0.816343    1.858600    0.563624
H      -0.113583    1.892015   -0.949607
H      -0.935589    1.800208    0.622620
H      -0.061794   -0.694882   -2.097923
H       0.055532   -3.161396   -0.986540
H      -1.991341   -1.718650    0.518880
H      -1.044160   -2.904684    1.494761
H       1.289904   -2.826910    1.421057
H       2.092716   -1.582553    0.389931
H       0.110473    0.501522    4.622988
