15

N       0.007045    1.398659   -0.163739
C       0.004969    0.004778   -0.069064
C      -1.201074   -0.704167    0.008584
C      -1.184431   -2.094273    0.039921
C       0.007036   -2.809079   -0.002367
C       1.207244   -2.101022   -0.078886
O       2.362450   -2.825812   -0.117733
C       1.210264   -0.707817   -0.110446
H       0.850954    1.845026    0.165088
H      -0.814606    1.844122    0.218230
H      -2.141526   -0.163506    0.039484
H      -2.124460   -2.633482    0.101607
H       0.028864   -3.891304    0.022698
H       3.109638   -2.222120   -0.179216
H       2.153098   -0.168880   -0.174587
