18

C      -0.817808    1.096224   -0.692669
C      -0.047324   -0.062969   -0.091373
O       0.635038   -0.737506   -1.166708
C       1.380105   -1.804175   -0.827410
N       1.505883   -2.234263    0.352063
C       2.034142   -2.394115   -2.082962
O       2.918532   -3.421257   -1.761235
C       0.957184   -2.896337   -3.035961
O       0.949719   -4.045181   -3.405086
H      -0.143887    1.796761   -1.193930
H      -1.552649    0.742972   -1.421885
H      -1.349587    1.635328    0.096772
H       0.695531    0.269131    0.640657
H      -0.703459   -0.778632    0.414241
H       2.124723   -3.045719    0.338561
H       2.549286   -1.563459   -2.594815
H       2.584242   -4.205853   -2.227849
H       0.197857   -2.160692   -3.354224
