18

C      -0.003796    1.501660    0.093587
C       1.313448    0.778289    0.024769
O       2.101919    0.803720    1.170899
C       2.686556   -0.456052    1.485274
C       1.733428   -1.367223    2.261657
C       0.473601   -1.784842    1.500155
O      -0.366691   -0.678579    1.187504
C       0.014960   -0.001395    0.033509
H      -0.248995    1.920889    1.062506
H      -0.348600    2.066264   -0.764841
H       1.875301    0.806476   -0.910664
H       3.038915   -0.952917    0.567677
H       3.565596   -0.233097    2.099106
H       2.279440   -2.273211    2.559402
H       1.430406   -0.852283    3.180431
H       0.737495   -2.334823    0.583151
H      -0.130218   -2.452288    2.123958
H      -0.283213   -0.489604   -0.896144
