20

C      -0.185148    1.528067    0.022004
C      -0.035671    0.007437   -0.036254
C      -1.358389   -0.657488   -0.400048
C       1.212559   -0.431431   -0.840745
O       1.961315   -0.689021    0.369585
C       0.776609   -0.591036    1.187299
C       1.009120    0.230321    2.449103
C       0.317519   -1.943555    1.571457
N      -0.042381   -2.998769    1.877163
H       0.769602    2.029256    0.201367
H      -0.574394    1.892465   -0.934659
H      -0.887984    1.834271    0.803591
H      -1.700644   -0.298865   -1.376841
H      -1.272050   -1.745411   -0.448111
H      -2.136945   -0.414681    0.331278
H       1.072942   -1.346219   -1.430209
H       1.696643    0.331877   -1.458595
H       1.379752    1.223952    2.195789
H       0.083947    0.324443    3.025331
H       1.753239   -0.268333    3.076205
