16

O       0.062309    0.049886   -0.211962
C       0.027742    1.242968   -0.039797
C      -1.213554    2.108160    0.191505
O      -0.735365    3.367290    0.626014
C       0.570345    3.570947    0.076094
C       1.186803    2.188097   -0.007745
C       2.430671    1.749518    0.749243
C       2.454525    1.830191   -0.743143
H      -1.779868    2.180312   -0.753321
H      -1.872221    1.683223    0.953784
H       0.497021    4.034002   -0.921721
H       1.103216    4.259154    0.737634
H       2.949140    2.510772    1.322477
H       2.395576    0.765415    1.204027
H       2.434745    0.899921   -1.301331
H       3.000841    2.643368   -1.209818
