16

O      -0.187075    0.018641    0.071144
C      -0.004750    1.201023    0.199942
C       1.327468    1.886443    0.045332
C       1.237557    3.147038   -0.909353
C       1.582112    4.053043    0.277593
C       1.657839    2.861104    1.198987
N       2.852239    3.596190    0.805373
C       3.621268    4.344987    1.684133
O       3.821708    5.530414    1.587276
H      -0.848662    1.889767    0.443596
H       2.099833    1.150614   -0.181359
H       1.939292    3.161894   -1.744553
H       0.221742    3.306461   -1.279810
H       1.256884    5.065723    0.476697
H       1.388728    2.772309    2.245300
H       4.102909    3.704810    2.447299
