16

C       0.022997    1.515289    0.009509
C       0.008955    0.016550    0.001557
C      -0.022367   -0.799226   -1.106244
N      -0.024455   -2.103651   -0.679436
C       0.003906   -2.135097    0.692389
C       0.025587   -0.838448    1.152742
C       0.060149   -0.397398    2.584790
H       0.917943    1.913708    0.503687
H       0.003960    1.916624   -1.008098
H      -0.841507    1.929874    0.542995
H      -0.042626   -0.555299   -2.156988
H      -0.044359   -2.909519   -1.277676
H       0.006703   -3.070646    1.229710
H       0.950797    0.203785    2.806592
H      -0.808692    0.220552    2.843856
H       0.066332   -1.255715    3.263178
