19

N       0.082944   -1.240476    0.467217
C       0.059949   -0.101445    0.268628
C       0.037146    1.342141    0.017758
C      -0.677739    2.100877    1.165386
C       0.428676    2.272649    2.217443
C       1.682869    2.613677    1.387420
C       1.465815    1.943720    0.022712
C       2.546673    1.346987   -0.795642
N       1.972235    2.655646   -1.158931
H      -0.456057    1.500905   -0.947107
H      -0.995666    3.076898    0.782968
H      -1.561562    1.575582    1.532526
H       0.189130    3.038293    2.959067
H       0.570812    1.328748    2.755128
H       1.769208    3.693276    1.230260
H       2.605862    2.279558    1.868013
H       3.571727    1.380716   -0.436564
H       2.310423    0.478976   -1.406346
H       1.338762    2.549296   -1.948207
