17

C      -0.029196    1.317566    0.092336
C       1.281086    2.135806    0.132231
C       2.263335    1.437693    1.052983
C       2.223408    0.115914    0.992507
C       2.428815   -1.124389    1.820285
O       1.114281   -1.386296    2.365899
C       1.386491   -1.838652    1.041151
C       1.321758   -0.648870    0.044748
O       0.136621   -0.023730   -0.375273
H      -0.466820    1.311872    1.100357
H      -0.749393    1.773373   -0.593661
H       1.678179    2.252648   -0.884677
H       1.053648    3.142147    0.499481
H       2.848138    1.997997    1.775619
H       3.282801   -1.502047    2.366842
H       1.264342   -2.896070    0.837758
H       1.886895   -0.958845   -0.849367
