19

C      -0.030277   -1.230952   -0.038473
C      -0.008506   -0.031010    0.014496
C       0.019820    1.425174    0.058182
C       1.437743    2.007865    0.029932
C       1.431337    3.533680   -0.096115
O       2.747191    4.053085   -0.015376
C       3.380861    3.664547    1.194097
C       3.398781    2.145855    1.318528
O       2.078712    1.630185    1.240294
H      -0.049377   -2.291704   -0.076087
H      -0.543530    1.830475   -0.792260
H      -0.478433    1.781274    0.968348
H       1.993249    1.589579   -0.825390
H       1.031657    3.844581   -1.066247
H       0.798650    3.961124    0.700885
H       4.396238    4.071069    1.163699
H       2.851079    4.098357    2.058158
H       4.023765    1.717103    0.518624
H       3.803443    1.833031    2.285793
