18

N       0.181908    1.067204    0.461712
C      -0.020192   -0.136685   -0.144091
O       0.898188   -0.765762   -0.669571
C      -1.372628   -0.712314   -0.064825
C      -1.876959   -1.598582   -1.205679
C      -1.518354   -2.252735    0.077039
O      -0.496830   -3.157181    0.216807
C      -2.597179   -2.066851    1.142425
C      -2.491521   -0.510341    0.966172
H       1.096156    1.483087    0.385986
H      -0.590313    1.651119    0.732317
H      -2.910089   -1.479402   -1.526187
H      -1.154138   -1.738825   -2.001538
H       0.288551   -2.733969   -0.173082
H      -3.566355   -2.531092    0.936973
H      -2.245128   -2.388602    2.123886
H      -2.156973   -0.016266    1.881370
H      -3.390072   -0.003134    0.598897
