16

C       0.036186    1.494432    0.026497
C      -0.108304    0.007514    0.014277
C      -0.023621   -0.865756    1.230203
C      -0.554673   -2.251796    0.924328
O      -1.942620   -2.423868    0.999613
C       0.126602   -2.049237   -0.451816
N       1.062005   -0.976506    0.209014
C      -0.619866   -0.874818   -1.083268
O      -1.141738   -0.671233   -2.141020
H       0.756586    1.809292    0.786589
H       0.377751    1.854857   -0.947720
H      -0.925768    1.967724    0.247624
H       0.160818   -0.424541    2.204094
H      -0.007432   -2.994864    1.518995
H      -2.151478   -3.355592    0.878096
H       0.546164   -2.857832   -1.044727
