25

C      -0.256830    1.441649    0.073375
C      -0.039614   -0.064860   -0.111290
C       0.809640   -0.504985   -1.337224
C       0.215627    0.091913   -2.625283
C       2.272169   -0.040024   -1.185106
C       0.814961   -2.049046   -1.366329
O       1.311281   -2.633357   -0.179526
C      -0.225549   -2.866510   -2.093065
C       1.212825   -2.835453   -2.578549
H       0.689307    1.984521    0.159821
H      -0.820452    1.881257   -0.754711
H      -0.824902    1.630477    0.989922
H       0.439231   -0.453703    0.795034
H      -1.020986   -0.554405   -0.182680
H       0.334205    1.178939   -2.629508
H       0.721629   -0.284807   -3.518656
H      -0.853585   -0.121610   -2.721941
H       2.734079   -0.505351   -0.310857
H       2.858141   -0.325667   -2.064950
H       2.341711    1.046789   -1.080382
H       0.617275   -2.582752    0.485765
H      -0.562991   -3.772212   -1.600956
H      -0.978168   -2.368769   -2.692650
H       1.431408   -2.317479   -3.504618
H       1.821290   -3.712574   -2.392706
