18

C      -0.177307    1.467090   -0.060664
C       0.132279   -0.013724    0.054214
O       0.419491   -0.524638    1.118788
C       0.060477   -0.793733   -1.215030
C       0.813366   -2.118157   -1.316071
C      -0.679618   -2.129047   -1.285029
C      -1.439765   -2.689784   -0.107622
O      -1.335638   -2.271608   -2.520344
H       0.538576    1.950598   -0.735597
H      -1.171721    1.613790   -0.497556
H      -0.129342    1.935935    0.922660
H      -0.027170   -0.214591   -2.127296
H       1.303443   -2.329630   -2.259242
H       1.343406   -2.410212   -0.415671
H      -0.931385   -2.466457    0.830945
H      -2.451747   -2.274059   -0.075085
H      -1.525374   -3.779348   -0.203742
H      -1.410530   -3.215494   -2.702049
