23

C      -0.140095    1.545983   -0.045203
C       0.032334    0.043973   -0.000063
C       1.363680   -0.612143   -0.257148
O       2.478975    0.226810   -0.100028
C       2.942076    0.125337    1.257980
C       3.740187    1.374027    1.589831
C       1.680761   -0.191359    2.127054
C       1.125071    0.948213    2.991854
C       0.717050   -0.782771    1.090173
H       0.803564    2.058310    0.149665
H      -0.474006    1.848408   -1.044078
H      -0.888443    1.895897    0.672973
H      -0.808206   -0.498519   -0.429715
H       1.492795   -1.410017   -0.983701
H       3.613964   -0.746283    1.320210
H       3.119980    2.272962    1.542764
H       4.169306    1.300021    2.593975
H       4.561057    1.489652    0.876799
H       1.950930   -1.003136    2.813022
H       0.871898    1.837460    2.412282
H       0.214531    0.618123    3.502257
H       1.845052    1.243721    3.762010
H       0.227490   -1.714595    1.350955
