18

C      -0.108801    1.518860   -0.080640
N       0.065595    0.082963    0.032000
C       0.732972   -0.555930   -1.136766
C       1.393302   -1.877799   -0.621426
C       1.535562   -1.489023    0.810420
C       0.769924   -0.422392    1.138573
C       0.850982   -0.276280    2.558621
C       1.661721   -1.301475    2.963239
O       2.076018   -2.070062    1.912752
H       0.844583    2.063034   -0.209265
H      -0.748970    1.744146   -0.939434
H      -0.605445    1.901017    0.815652
H       0.014593   -0.723598   -1.943678
H       1.524805    0.111473   -1.515265
H       0.724546   -2.739833   -0.756271
H       2.323534   -2.096276   -1.154448
H       0.397658    0.462874    3.199967
H       2.045649   -1.590510    3.927805
