18

C      -0.305185    1.420445   -0.093230
C      -0.445882   -0.024956    0.347138
O      -1.250967   -0.704058   -0.614483
C      -1.442918   -2.038628   -0.328556
C      -2.360245   -2.512703    0.752109
O      -3.432448   -1.560926    0.940386
C      -3.868659   -1.784571   -0.368663
N      -4.894010   -1.381613   -0.959408
C      -2.745922   -2.712415   -0.713762
H       0.302802    1.977719    0.625511
H       0.173839    1.479887   -1.074457
H      -1.287784    1.895062   -0.161095
H       0.540782   -0.510057    0.418091
H      -0.921923   -0.092156    1.335698
H      -0.569645   -2.680934   -0.475087
H      -2.163960   -3.208215    1.557153
H      -5.452169   -0.771540   -0.360239
H      -2.808376   -3.585820   -1.345931
