16

C      -0.017370    1.525600   -0.004135
C       0.063380    0.021778    0.014486
C      -0.822415   -0.804274    0.927484
C       0.662524   -0.865389    1.140048
N       1.324667   -1.921850    0.419474
C       1.145779   -1.646015   -0.926645
N       0.446680   -0.606618   -1.223983
C       1.713336   -2.528082   -1.905574
N       2.203787   -3.250784   -2.662789
H       0.923130    1.965273   -0.349395
H      -0.812567    1.854422   -0.680815
H      -0.236399    1.916610    0.993713
H      -1.390773   -0.245854    1.663250
H      -1.323405   -1.676915    0.521442
H       1.134365   -0.509382    2.047542
H       2.195203   -2.312088    0.746990
