20

C      -0.003624    1.551670    0.002638
C      -0.000052    0.010696    0.029838
C       0.769520   -0.516731    1.256606
C      -1.402391   -0.529616    0.003274
C      -1.994441   -1.305166   -0.910600
C      -3.419900   -1.607478   -0.530163
N      -3.549803   -0.897836    0.719626
C      -2.401000   -0.242035    1.093049
O      -2.251698    0.424284    2.100599
H       1.022489    1.933491    0.003197
H      -0.506389    1.930225   -0.892978
H      -0.521854    1.944320    0.880857
H       0.506183   -0.349046   -0.875673
H       0.817046   -1.610319    1.253453
H       1.794600   -0.132143    1.255531
H       0.278021   -0.195675    2.178212
H      -1.549254   -1.690009   -1.819711
H      -4.129458   -1.247665   -1.290049
H      -3.590644   -2.688311   -0.416046
H      -4.382997   -0.869531    1.281606
