18

C      -0.053438    1.488180    0.034952
C      -0.000169   -0.006267    0.003452
C       0.082359   -0.822564   -1.082596
O       0.115506   -2.128092   -0.723706
C       0.055629   -2.164404    0.648851
C       0.074429   -3.485851    1.332571
O      -0.882134   -3.546532    2.397515
C      -0.017721   -0.890591    1.140796
N      -0.023659   -0.505590    2.486554
H       0.772244    1.906330    0.622562
H       0.007647    1.906479   -0.973319
H      -0.985027    1.855381    0.484997
H       0.123538   -0.622296   -2.141446
H      -0.084887   -4.280001    0.589112
H       1.035473   -3.686149    1.822086
H      -1.739661   -3.334550    2.011766
H      -0.334960   -1.261062    3.086156
H      -0.573672    0.325926    2.659660
