23

C      -0.143825    1.517453   -0.091848
C       0.039192    0.003049   -0.027883
C       1.030045   -0.533889   -1.089447
C       1.219526   -2.017840   -0.725280
C       1.908052   -1.312349    0.461814
O       2.329823   -0.262699   -0.470066
C       0.769584   -0.600626    1.248546
C       1.370182    0.445270    2.196686
C      -0.120464   -1.559368    2.048548
H       0.819508    2.033997   -0.086002
H      -0.668374    1.796276   -1.012603
H      -0.737423    1.893524    0.747203
H      -0.938885   -0.476453   -0.153072
H       0.941954   -0.170096   -2.114480
H       0.344544   -2.649201   -0.558731
H       1.944881   -2.506903   -1.376245
H       2.727143   -1.754002    1.032449
H       2.093927    1.079979    1.682103
H       0.596369    1.085078    2.632667
H       1.885657   -0.052116    3.026666
H       0.454710   -2.070725    2.829588
H      -0.926722   -1.009541    2.546914
H      -0.586097   -2.324894    1.421520
