22

C      -0.118726    1.821581    0.772071
N      -0.165057    0.368087    0.756237
C       0.852365   -0.315596   -0.029735
C       0.852642   -0.421418    1.457983
C       2.006553    0.138396    2.266509
O       1.787666    0.115982    3.669285
C       0.937201    1.109996    4.153814
C      -0.535595    0.830228    4.328941
C       0.392027    0.890554    5.526726
H       0.891883    2.252468    0.683987
H      -0.709276    2.193197   -0.071570
H      -0.571476    2.191458    1.696161
H       0.519146   -1.145623   -0.647642
H       1.635807    0.295814   -0.480455
H       0.447822   -1.330564    1.900822
H       2.882175   -0.501449    2.111001
H       2.277524    1.150521    1.932823
H       1.233952    2.121602    3.873059
H      -1.243228    1.637778    4.174729
H      -0.890146   -0.147440    4.025660
H       0.650648   -0.050572    5.998669
H       0.327829    1.736266    6.201843
