17

C      -0.491978    1.430958    0.052706
C       0.139850    0.042792    0.012339
C       1.205839   -0.159316   -1.072976
O       1.964781   -1.299018   -0.673590
C       1.783366   -1.524794    0.720812
C       0.933941   -0.366962    1.264476
O       1.725502    0.747449    1.658225
H       0.263615    2.194104    0.250548
H      -0.979463    1.662805   -0.899992
H      -1.251166    1.496659    0.838492
H      -0.640899   -0.714925   -0.131950
H       0.780701   -0.357904   -2.062267
H       1.853944    0.726793   -1.143480
H       1.278825   -2.490081    0.875806
H       2.761218   -1.572193    1.220240
H       0.281608   -0.691218    2.087929
H       2.337736    0.455991    2.340357
