18

N       0.350693    0.924561   -0.578236
C       0.087628   -0.193630   -0.076048
O       0.917864   -1.126899    0.523429
C      -0.216142   -2.015121    0.802436
C      -1.172372   -1.007616    0.106275
C      -1.412921   -2.046347   -1.038791
C      -0.466910   -3.022211   -0.310872
C       0.532364   -3.978524   -0.887648
C      -0.659966   -4.501479   -0.125579
H       1.349402    1.131756   -0.519935
H      -0.233670   -2.315454    1.850168
H      -2.030563   -0.525781    0.567919
H      -2.448917   -2.391737   -1.080040
H      -1.110428   -1.713070   -2.034162
H       0.543174   -4.100347   -1.965822
H       1.510624   -4.030893   -0.421890
H      -0.496069   -4.916495    0.864021
H      -1.459117   -4.979321   -0.683200
