15

O      -0.136106    1.413133   -0.016408
C      -0.031200    0.044959   -0.012308
C      -0.229197   -0.851562   -1.198536
C      -1.159276   -0.957548    0.000949
C      -0.490134   -1.689019    1.195893
N       0.858803   -2.138707    0.815972
C       0.638160   -0.713313    1.199040
C       1.306471   -0.095094    2.287522
N       1.861741    0.422060    3.162766
H       0.653396    1.783561   -0.429414
H      -0.686697   -0.336078   -2.037349
H       0.460903   -1.646839   -1.448668
H      -2.223642   -0.782005   -0.065033
H      -1.009348   -2.108875    2.047036
H       1.275388   -2.611083    1.619043
