19

C      -0.521768    1.442729    0.644373
N       0.224904    0.317378    0.083455
C      -0.626489   -0.648503   -0.615286
C      -1.007907   -1.759304    0.435529
C      -1.277622   -3.046788   -0.196303
N      -1.488792   -4.059894   -0.712266
C       0.181222   -1.747938    1.392738
C       1.553236   -1.740007    0.752106
C       0.903676   -0.437706    1.120064
H       0.174679    2.126471    1.138608
H      -1.009778    1.993177   -0.164516
H      -1.291189    1.152380    1.382059
H      -1.506738   -0.161822   -1.038161
H      -0.079319   -1.112306   -1.440044
H      -1.908210   -1.462120    0.985264
H       0.047638   -2.160516    2.384881
H       2.379452   -2.061472    1.376108
H       1.659751   -2.017873   -0.290523
H       1.332738    0.162139    1.913742
