10

O       0.027418   -0.072831    0.003038
C      -0.034310    1.118827    0.007269
C       1.138133    1.992103    0.001501
N       2.126909    2.588828   -0.003781
N      -1.261521    1.832824    0.018166
N      -2.463085    1.246675    0.024854
C      -3.256192    2.294450    0.033717
N      -2.571979    3.484872    0.032585
N      -1.319320    3.185455    0.022723
H      -4.332031    2.227575    0.041142
