17

C      -0.058595    1.391065   -0.096974
N      -0.085932   -0.064442   -0.096348
C       0.528753   -0.689948   -0.993756
O       1.270049   -0.155075   -2.041863
C       1.720992   -1.363135   -2.719983
C       0.434640   -2.218297   -2.769889
C       0.655562   -2.176086   -1.215008
C       2.189786   -2.250814   -1.544917
H       0.521154    1.832453   -0.915432
H      -1.086694    1.766727   -0.151019
H       0.355168    1.740141    0.855909
H       2.326781   -1.089052   -3.580723
H      -0.463551   -1.750380   -3.177761
H       0.590457   -3.213108   -3.190060
H       0.150453   -2.827819   -0.508557
H       2.505598   -3.248597   -1.853397
H       2.893692   -1.812556   -0.834638
