15

C      -0.047467    1.553341    0.080539
N       0.094696    0.115205    0.137846
C      -1.125507   -0.708083    0.314242
C      -0.418092   -1.519454    1.412206
O       0.482684   -2.551611    0.909448
C       1.572807   -1.695812    0.915208
O       2.696349   -1.954630    0.640227
C       0.724164   -0.485152    1.341027
H       0.941214    2.020936    0.047319
H      -0.576633    1.828255   -0.837374
H      -0.605083    1.978064    0.936694
H      -1.970109   -0.139560    0.732276
H      -1.454235   -1.251431   -0.576625
H      -0.952307   -1.852941    2.298177
H       1.068082    0.181557    2.132648
