20

C      -0.019506    0.950381   -0.885151
O       0.850761    1.893774   -0.236717
C       0.972968    1.042660    0.922697
C       0.337000   -0.144446    0.167843
N      -0.618533   -0.933048    0.923954
C      -1.118721   -2.245204    0.346736
C      -2.273710   -2.143646    1.374574
C      -2.115336   -0.755289    0.702420
C      -2.018113   -1.488965   -0.670519
H      -1.068267    1.277990   -0.852390
H       0.266238    0.770145   -1.928313
H       2.010807    0.941980    1.257966
H       0.351324    1.390298    1.759816
H       1.108346   -0.819087   -0.216611
H      -0.438845   -3.080969    0.169665
H      -3.185767   -2.698024    1.148790
H      -1.979554   -2.196185    2.422586
H      -2.631631    0.173676    0.948439
H      -1.513858   -0.969544   -1.485557
H      -2.916040   -2.001120   -1.029385
