16

O       0.954404   -0.266545   -0.281478
C       0.429417    0.793031   -0.057435
C       1.143667    2.107881    0.072397
C       0.582771    3.287507   -0.794241
C       0.696465    4.171856    0.447427
C       1.334519    5.480814    0.584715
O      -0.087789    5.311614    0.713147
C       0.817272    2.947796    1.355082
H      -0.677548    0.871016    0.075638
H       2.214590    1.955802   -0.068456
H       1.146663    3.561885   -1.687542
H      -0.465680    3.125000   -1.067558
H       1.857500    5.736405    1.505440
H       1.660235    6.022202   -0.302628
H      -0.154981    2.674924    1.780075
H       1.565359    2.955370    2.149785
