20

O      -0.118087    1.475041    0.349119
C      -0.024468    0.091557    0.163344
C      -0.685739   -0.837432    1.151298
C      -1.284334   -0.624773   -0.228856
C      -2.587466    0.129215   -0.389317
C      -3.813103   -0.746907   -0.106482
C      -5.129669    0.033457   -0.294042
C      -6.312684   -0.779800   -0.021824
N      -7.236343   -1.438734    0.197955
H       0.446525    1.713500    1.091478
H       0.904050   -0.240771   -0.300756
H      -0.212779   -1.784330    1.387507
H      -1.199615   -0.365289    1.983175
H      -1.150676   -1.444323   -0.930889
H      -2.583607    0.998740    0.276092
H      -2.651983    0.528594   -1.410690
H      -3.817759   -1.618651   -0.770660
H      -3.766702   -1.135927    0.916294
H      -5.148995    0.907289    0.368002
H      -5.200478    0.417211   -1.318699
