14

O       0.074078    1.340678    0.267772
C       0.067029    0.016914    0.033908
N       0.081836   -0.587398   -1.115016
C       0.065225   -1.946784   -0.812347
C       0.040338   -2.121698    0.541688
N       0.016563   -3.246818    1.369499
C       0.014093   -4.540307    0.921184
O       0.031976   -4.870738   -0.242383
N       0.041484   -0.841982    1.092965
H       0.092870    1.765418   -0.599282
H       0.071962   -2.708401   -1.570373
H       0.000068   -3.105659    2.367302
H      -0.006580   -5.255632    1.765183
H       0.027270   -0.580522    2.063941
