16

O       0.102066    0.206028   -0.660556
C       0.196293    1.389507   -0.543313
O       0.998447    1.969915    0.370809
C       1.048978    3.400386    0.430018
C       2.467677    3.876961    0.180193
C       2.935772    3.835871   -1.290710
O       2.856532    5.272926   -1.398697
C       2.602675    5.407615    0.013100
H      -0.354893    2.127548   -1.159201
H       0.361142    3.834055   -0.308772
H       0.708332    3.697354    1.427899
H       3.145445    3.416453    0.900966
H       3.958821    3.468661   -1.437895
H       2.272908    3.330045   -2.003788
H       1.704432    6.004631    0.217490
H       3.452111    5.853804    0.545409
