23

C      -0.019162    1.500046    0.063256
C      -0.042565   -0.019003    0.043379
O       0.690882   -0.496189    1.152642
C       0.736225   -1.902879    1.231868
C       1.530532   -2.292246    2.489599
C       0.853588   -1.765184    3.769614
C       1.720447   -3.741473    2.530737
C       1.851786   -4.938363    2.561681
C       2.023713   -6.383927    2.603935
H       1.009062    1.868476    0.006700
H      -0.579754    1.901531   -0.786210
H      -0.468043    1.878583    0.986024
H      -1.080328   -0.391358    0.085664
H       0.396162   -0.400814   -0.894275
H      -0.281169   -2.325685    1.288579
H       1.219620   -2.328170    0.338021
H       2.513081   -1.808947    2.398786
H       0.714168   -0.684636    3.696179
H      -0.125127   -2.236172    3.906623
H       1.462526   -1.988753    4.649231
H       1.648248   -6.803153    3.544120
H       1.483767   -6.873784    1.785894
H       3.079585   -6.663402    2.516004
