22

C      -0.159493    1.593009   -0.027179
C       0.001297    0.065366   -0.023700
C       0.746392   -0.447963   -1.274885
C       2.241915   -0.102198   -1.221751
C       2.834204   -0.554821    0.113934
O       2.109019   -0.034963    1.215610
C       0.747036   -0.456220    1.226474
C       0.156454   -0.013877    2.558060
H       0.798086    2.094247    0.138608
H      -0.562235    1.936773   -0.985576
H      -0.847140    1.926535    0.755125
H      -0.999992   -0.385966   -0.016631
H       0.636890   -1.539790   -1.328237
H       0.287495   -0.043349   -2.184024
H       2.780098   -0.583207   -2.046824
H       2.388410    0.978329   -1.331479
H       2.843883   -1.658652    0.161394
H       3.864795   -0.207082    0.234246
H       0.724744   -1.560909    1.182228
H       0.235993    1.069290    2.680542
H      -0.898911   -0.296344    2.624825
H       0.695827   -0.486712    3.383172
