16

C      -0.149996    1.536137    0.058268
C       0.073687    0.013525   -0.008525
C       0.796424   -0.526098    1.184866
N       2.081288   -0.781235    1.239320
C       2.266453   -1.210938    2.530968
N       1.192592   -1.241578    3.280770
N       0.228049   -0.796001    2.415819
C      -1.119497   -0.677385    2.800614
O      -1.539282   -0.929107    3.890794
H       0.804002    2.059840    0.161862
H      -0.637080    1.886019   -0.855842
H      -0.782388    1.816426    0.906296
H      -0.882760   -0.503031   -0.143486
H       0.693221   -0.229773   -0.875032
H       3.231704   -1.510519    2.912108
H      -1.739072   -0.319965    1.961036
