15

N       0.021619    1.312791   -0.107013
C      -0.015132   -0.041853   -0.031492
C      -1.107085   -0.853255   -0.000825
C      -2.448942   -0.426982    0.003214
C      -3.582698   -0.015557    0.011787
C      -0.648339   -2.269321    0.015828
O      -1.301268   -3.286065   -0.034918
N       0.741157   -2.209861    0.114722
C       1.250239   -0.865967   -0.032389
H       0.859361    1.796603    0.171379
H      -0.843755    1.803090    0.063501
H      -4.591540    0.314509    0.012614
H       1.282035   -3.019118   -0.141565
H       1.805855   -0.716548   -0.970016
H       1.915731   -0.576031    0.794276
