20

C       0.000312    1.527822    0.012933
C       1.317318    0.804428   -0.034275
C       0.017074    0.013717    0.003718
C      -0.363628   -0.722327    1.280497
C      -0.104431   -2.228477    1.138590
C      -0.916455   -2.814220   -0.027028
C      -0.836770   -1.946894   -1.257628
C      -0.397318   -0.687054   -1.237213
H      -0.282728    2.018822    0.938571
H      -0.337899    2.039538   -0.882290
H       1.878906    0.818606   -0.962143
H       1.933180    0.797486    0.859279
H       0.186443   -0.311047    2.134363
H      -1.430975   -0.559415    1.485157
H       0.964254   -2.391119    0.951035
H      -0.347589   -2.749505    2.070729
H      -0.561320   -3.825308   -0.263344
H      -1.968873   -2.938202    0.270968
H      -1.149955   -2.390211   -2.199726
H      -0.333854   -0.118392   -2.163255
