17

C       0.110898    1.513796   -0.353046
C       0.234673    0.008355   -0.223996
N       1.573520   -0.560704   -0.285243
C       0.858041   -0.653679    0.991742
C       1.399436    0.156778    2.119937
O       1.112973   -0.038102    3.274438
C      -0.833832   -0.872647   -0.855688
N      -2.010582   -0.268219   -1.163636
O      -0.618695   -2.051593   -1.081108
H       1.030620    1.999439   -0.024688
H      -0.058146    1.798216   -1.396745
H      -0.711654    1.910464    0.253136
H       1.501743   -1.466095   -0.752384
H       0.421734   -1.606021    1.280160
H       2.105577    0.959067    1.814735
H      -2.221640    0.674813   -0.891337
H      -2.752291   -0.844169   -1.527323
