18

O      -0.022251    1.325035   -0.211093
N       0.031008   -0.081783   -0.194921
C      -1.111920   -0.601654    0.057883
C      -2.361188    0.196974    0.353011
C      -3.382255   -0.547152    1.173409
C      -3.336729   -1.857102    1.414766
C      -2.292597   -2.745299    0.850825
C      -2.200669   -2.869804   -0.656148
C      -1.150989   -2.081328    0.100394
H       0.900143    1.556126   -0.360488
H      -2.064410    1.124072    0.854796
H      -2.807537    0.532597   -0.596189
H      -4.194706    0.050033    1.578268
H      -4.106643   -2.324283    2.022811
H      -2.051355   -3.631570    1.428624
H      -1.888218   -3.816987   -1.082131
H      -2.936728   -2.328741   -1.240165
H      -0.170671   -2.538416    0.166491
