19

C       0.397296    0.474175   -0.762092
O      -0.077385   -0.649250   -0.053604
C      -1.442453   -0.585443    0.292366
C      -2.399181   -0.979909   -0.865821
C      -2.366080   -2.469083   -0.376988
C      -1.453572   -3.328770   -1.100878
C      -0.689700   -4.048362   -1.689040
C      -1.794717   -1.924564    0.997692
O      -0.781869   -2.601677    1.657327
H       1.463348    0.316471   -0.940504
H      -0.108125    0.597618   -1.730330
H       0.263612    1.398587   -0.179927
H      -1.657851    0.349402    0.829089
H      -3.391714   -0.536646   -0.754308
H      -2.035526   -0.799906   -1.877918
H      -3.344613   -2.950739   -0.294588
H      -0.022196   -4.686641   -2.212576
H      -2.620557   -1.792790    1.701949
H       0.007505   -2.514095    1.106951
