18

C      -0.114006    1.634878   -0.284341
C      -0.101599    0.161964   -0.011385
C       0.489037   -0.994792   -0.770304
C       1.549291   -1.273329    0.358529
C       0.486438   -0.574806    1.217426
C      -0.430256   -1.369182    1.805478
C      -1.656016   -1.483130    0.903304
C      -1.052538   -0.913223   -0.394194
H       0.881430    2.075801   -0.157762
H      -0.442182    1.837790   -1.309348
H      -0.795218    2.161488    0.394030
H       0.737659   -0.998750   -1.830205
H       1.802687   -2.302324    0.629748
H       2.461518   -0.707783    0.134373
H      -0.146671   -2.206866    2.437589
H      -1.943989   -2.540397    0.848547
H      -2.560425   -0.923894    1.185141
H      -1.681429   -0.790549   -1.275909
