17

N      -0.032822    1.298582   -0.051475
C       0.016221   -0.079178    0.086855
O       1.051748   -0.720716    0.060899
N      -1.214393   -0.678843    0.233328
C      -2.546567   -0.266033   -0.261727
C      -2.861522   -1.762622   -0.505708
O      -2.506128   -2.197659   -1.824614
C      -1.183376   -2.622535   -1.389065
C      -1.448078   -2.109762    0.036716
H       0.866096    1.739599    0.069068
H      -0.804373    1.792565    0.370165
H      -3.160065    0.226096    0.503260
H      -2.533695    0.335680   -1.176179
H      -3.811997   -2.166749   -0.154624
H      -1.077321   -3.711257   -1.465472
H      -0.373153   -2.130401   -1.933207
H      -1.208470   -2.749737    0.884892
