21

C      -0.355041    1.269784   -0.089342
O       0.262631    0.007322    0.078243
C       0.790970   -0.544762   -1.086355
C      -0.158831   -1.181895   -2.070848
C       0.771279   -2.047244   -1.223620
C       2.077152   -2.403795   -1.847356
C       2.825977   -1.320383   -2.064879
C       2.157906   -0.041471   -1.591400
C       2.119577    1.054826   -2.668549
H       0.373680    2.062465   -0.308353
H      -1.102747    1.250952   -0.894605
H      -0.852237    1.507671    0.854405
H      -1.204640   -1.180290   -1.781304
H       0.027031   -1.115028   -3.137771
H       0.325753   -2.668755   -0.455288
H       2.351502   -3.421287   -2.102319
H       3.798808   -1.312594   -2.545103
H       2.698287    0.356798   -0.719344
H       1.547182    0.730802   -3.543176
H       1.666704    1.975778   -2.290012
H       3.132260    1.299237   -3.006734
