16

C      -0.048382    1.476329    0.122507
N      -0.036909    0.026937   -0.051345
C       0.706083   -0.489957   -1.211558
C       2.187877   -0.026785   -1.316023
C       0.667719   -1.958876   -1.154216
C       0.682923   -3.156075   -1.073570
C      -0.002755   -0.042807   -2.439506
N      -0.522251    0.336437   -3.398633
H       0.936259    1.935707    0.300608
H      -0.487952    1.943576   -0.764048
H      -0.691896    1.712386    0.974023
H       0.307906   -0.442797    0.778056
H       2.722989   -0.345360   -0.417612
H       2.667350   -0.475052   -2.188888
H       2.245472    1.059726   -1.406163
H       0.677546   -4.216911   -1.014594
