17

C       0.296609    1.314416    0.042089
N       0.002344   -0.098171   -0.038503
N      -0.478554   -0.646797   -1.190873
C      -0.635567   -1.934887   -0.908487
C      -0.277161   -2.247161    0.421413
C      -0.294540   -3.512100    1.216536
O       0.781065   -3.528633    2.179955
C       0.125066   -1.023700    0.936304
O       0.594789   -0.701979    2.156026
H       0.868302    1.614992   -0.838289
H      -0.624081    1.904937    0.085539
H       0.882893    1.496449    0.943740
H      -1.007087   -2.604252   -1.672181
H      -1.198769   -3.609157    1.828933
H      -0.249415   -4.396374    0.567275
H       1.604683   -3.562667    1.679227
H       0.758343   -1.555251    2.597124
