18

O       0.343624   -0.253327   -0.078423
C       0.134810    0.923688   -0.216645
C       1.171254    2.014485   -0.018003
C       1.213637    2.967266   -1.184880
C       1.948890    2.695332   -2.473330
C       2.301085    3.906662   -1.653263
N       1.368383    5.103928   -1.701267
C       0.250623    4.852595   -2.632914
C       0.250649    4.171951   -1.321707
H      -0.872648    1.295235   -0.517337
H       0.907711    2.564743    0.898210
H       2.142401    1.538747    0.146714
H       2.690976    1.906480   -2.386065
H       1.481667    2.730703   -3.450782
H       3.295379    4.083304   -1.262600
H      -0.392401    5.723462   -2.725944
H       0.403997    4.321066   -3.564348
H      -0.436378    4.441011   -0.524109
