18

C       0.373021    1.420167    0.035085
O       1.192767    0.280408   -0.239173
C      -0.192570    0.064958    0.047747
C      -0.533195   -0.702093    1.305395
C      -0.214559   -2.224735    1.197886
C       0.577863   -2.522589    2.490974
O       0.303949   -1.447748    3.378121
C       0.244684   -0.284866    2.571580
H       0.585290    1.930305    0.973238
H       0.186782    2.076192   -0.814007
H      -0.771774   -0.233171   -0.828667
H      -1.605789   -0.572115    1.487234
H      -1.132794   -2.814042    1.145599
H       0.378754   -2.449089    0.307888
H       0.281109   -3.449872    2.987520
H       1.656601   -2.574940    2.275553
H       1.256633    0.050546    2.294748
H      -0.246559    0.500057    3.151779
