21

C       0.000091    1.619915   -0.115960
C       0.048833    0.093280   -0.101127
N      -1.297378   -0.471322    0.011576
C      -1.862532   -0.547381    1.392851
C      -2.726473   -1.789235    1.023496
N      -2.276060   -2.649506    2.163818
C      -1.064814   -1.833588    1.827699
C      -1.365227   -1.945460    0.280340
C      -0.943823   -3.010394   -0.684015
H       1.000449    2.040192   -0.258288
H      -0.646719    1.972658   -0.924208
H      -0.394998    2.013544    0.826751
H       0.478089   -0.267273   -1.044057
H       0.723560   -0.249103    0.704865
H      -2.140492    0.326788    1.985392
H      -3.728018   -1.813984    0.593725
H      -2.690957   -2.318755    3.039065
H      -0.124382   -1.936753    2.370525
H      -1.171592   -3.993997   -0.262560
H      -1.475819   -2.903327   -1.634714
H       0.131334   -2.964849   -0.886795
