16

O      -0.275583    0.158871    0.516069
C      -0.126387    1.299346    0.178858
N      -1.009012    2.280047   -0.245309
C      -0.018821    3.365775   -0.190395
C       0.010832    4.192513    1.090488
O      -0.226925    3.397701    2.255843
C       1.125707    3.745041    1.947081
C       1.900486    2.622778    1.277416
C       1.077838    2.267987    0.027190
H      -2.001380    2.327995   -0.057065
H       0.025114    3.982834   -1.091047
H      -0.393166    5.201528    1.117359
H       1.611880    4.396983    2.669736
H       2.900353    2.977307    1.004336
H       2.024916    1.762933    1.943366
H       1.687851    2.031543   -0.845486
