20

C       0.079998    1.450978   -0.013318
C       0.044152   -0.004039   -0.022855
C       0.024110   -1.207328   -0.034576
C      -0.037808   -2.664437   -0.014322
C      -1.469591   -3.196878   -0.121868
O       0.751185   -3.145447   -1.134834
C       1.337943   -4.353319   -1.007760
C       2.133517   -4.664241   -2.250649
N       1.194752   -5.064234    0.035666
H       0.603709    1.835885   -0.895286
H      -0.930080    1.875158   -0.017486
H       0.598668    1.832789    0.872913
H       0.421581   -3.053694    0.899539
H      -2.072138   -2.808344    0.703693
H      -1.922289   -2.877256   -1.063971
H      -1.458892   -4.287321   -0.068971
H       2.893491   -3.893928   -2.412044
H       2.618625   -5.638462   -2.172117
H       1.477866   -4.658930   -3.126602
H       1.721898   -5.929899   -0.045188
