19

N      -0.028251    0.968765   -0.501014
C      -0.185653   -0.356931   -0.156989
O       0.632011   -1.210392   -0.480074
N      -1.339446   -0.633367    0.564492
C      -2.633128   -0.039755    0.152764
C      -3.517219   -1.247694   -0.283422
C      -2.565634   -2.462430   -0.240311
O      -1.905128   -2.606609   -1.489120
C      -1.590838   -2.048644    0.862254
H       0.881059    1.181167   -0.879934
H      -0.426604    1.672642    0.099645
H      -3.088818    0.501441    0.989270
H      -2.467161    0.668815   -0.659555
H      -4.350331   -1.387768    0.412087
H      -3.926230   -1.123254   -1.287152
H      -3.100369   -3.390923   -0.005662
H      -0.958244   -2.458342   -1.359593
H      -0.654843   -2.605179    0.860477
H      -2.060421   -2.134159    1.849695
