22

C      -0.497329    1.315963    0.015693
C       0.021508   -0.097516    0.039362
N      -0.522876   -1.078235    1.006921
C       0.895693   -0.646903    1.103829
C       1.855949   -1.658445    0.510124
C       1.181988   -2.044945   -0.824923
C       0.400664   -0.784216   -1.278943
C      -0.792359   -1.105145   -2.176887
O       1.285492    0.146849   -1.920143
H       0.169862    1.958534   -0.563502
H      -1.493682    1.367110   -0.439315
H      -0.573650    1.719367    1.031011
H      -1.068246   -0.573648    1.702437
H       1.194449   -0.038847    1.952492
H       2.822592   -1.173556    0.336201
H       2.023067   -2.524048    1.158759
H       1.899966   -2.352315   -1.591558
H       0.485297   -2.870695   -0.667223
H      -1.525022   -1.709579   -1.635027
H      -1.276326   -0.186145   -2.521117
H      -0.474387   -1.671196   -3.061085
H       1.530969   -0.226893   -2.772620
