17

O      -0.022182    1.412764    0.009791
C      -0.006461    0.004249    0.002121
C      -1.472519   -0.506895    0.013384
C      -1.423530   -2.058737    0.004568
O      -2.743867   -2.549479    0.014436
C      -2.149124   -0.040664    1.231455
C      -2.671714    0.319596    2.250204
C      -2.172231   -0.027656   -1.186449
C      -2.714158    0.343494   -2.191088
H       0.887349    1.724146    0.002822
H       0.486128   -0.392982   -0.898250
H       0.503185   -0.402528    0.888630
H      -0.876952   -2.377426   -0.895876
H      -0.860013   -2.387037    0.891004
H      -2.708139   -3.510183    0.009344
H      -3.149679    0.649070    3.139216
H      -3.208996    0.682460   -3.067206
