18

N      -0.158155   -1.130746   -0.293673
C      -0.099065    0.011410   -0.130716
C      -0.043088    1.474991    0.012883
N      -0.687585    1.927439    1.262652
C       0.388144    2.256387    2.213121
C       1.580350    2.780307    1.383967
C       2.918384    2.019000    1.554728
N       2.454158    1.056604    0.531414
C       1.429506    2.000822    0.051427
H      -0.581849    1.895875   -0.842738
H      -1.229110    2.759084    1.058310
H       0.019199    2.971152    2.952505
H       0.679382    1.344637    2.747041
H       1.623563    3.868885    1.336886
H       3.781962    2.626110    1.252050
H       3.124358    1.575710    2.535868
H       3.133990    0.733064   -0.145268
H       1.684519    2.546663   -0.864374
