15

N      -0.095442   -1.164463   -0.060766
C      -0.067989   -0.010315   -0.017134
C      -0.003838    1.456858    0.011339
O      -0.474209    1.965727    1.274293
C       0.647273    2.670952    1.764154
C       1.360997    3.442145    0.620578
N       2.662526    3.250603    1.353352
C       1.969014    1.916132    1.456352
C       1.424656    2.009168   -0.009178
H      -0.628051    1.852304   -0.798935
H       0.450842    3.122308    2.732412
H       1.077565    4.380618    0.143659
H       3.426233    3.182482    0.675537
H       2.402821    1.055618    1.964414
H       2.068770    1.794990   -0.861126
