19

C       0.110546    1.331991   -0.117409
C       0.027867   -0.150936   -0.000586
O       0.930718   -0.961438   -0.765492
C       0.073437   -2.102059   -0.416966
C       0.141412   -3.186832   -1.450512
O       1.468154   -3.667318   -1.579856
C       0.371503   -2.297038    1.094423
C      -0.329172   -0.950671    1.268050
C      -1.102590   -1.123198   -0.041684
H       1.079851    1.695330    0.240337
H      -0.014180    1.651198   -1.156849
H      -0.672406    1.802145    0.485022
H      -0.479686   -4.036619   -1.148295
H      -0.248305   -2.804210   -2.406895
H       2.024702   -2.893698   -1.729368
H      -0.218059   -3.114846    1.517619
H       1.424446   -2.395001    1.372591
H      -0.666723   -0.471130    2.178439
H      -2.149830   -1.056458   -0.302955
