14

N       0.066766    1.351802    0.138317
C      -0.054500    0.001622    0.046525
C      -1.237988   -0.688055    0.008483
C      -1.129448   -2.100855   -0.036448
N      -2.250748   -2.861468   -0.101350
N       0.019605   -2.763148   -0.044242
C       1.185283   -2.101103   -0.016985
O       2.304395   -2.517356   -0.024004
O       1.113072   -0.617948    0.031905
H       0.976253    1.736737   -0.060418
H      -0.729890    1.923936   -0.084509
H      -2.190210   -0.176671    0.013823
H      -3.152187   -2.464972    0.095794
H      -2.130783   -3.856160   -0.000889
