17

C      -0.319433    1.657511   -0.130735
C       0.039379    0.169963    0.030562
C       0.841606   -0.365181   -1.098646
C       2.065937   -0.882964   -1.220059
C       3.173942   -1.166168   -0.279203
O       2.273889   -1.206989   -2.558517
C       1.145352   -0.870906   -3.249068
O       0.972842   -1.008550   -4.417588
O       0.250086   -0.349207   -2.360692
H       0.582198    2.276006   -0.166847
H      -0.880182    1.822330   -1.054365
H      -0.934702    1.994828    0.707941
H       0.603603    0.012294    0.955166
H      -0.882764   -0.418539    0.121794
H       3.425510   -2.232476   -0.277431
H       4.078540   -0.614932   -0.558862
H       2.893317   -0.876234    0.735410
