13

N      -0.018842    1.316469    0.073647
C       0.010593   -0.032124    0.022327
N      -1.183273   -0.662652    0.023452
C      -1.060454   -1.972430   -0.003267
F      -2.194594   -2.645779   -0.000342
N       0.030565   -2.707400   -0.032462
C       1.155691   -1.961138   -0.037232
N       2.325435   -2.632774   -0.091800
N       1.210055   -0.624440   -0.008997
H       0.838508    1.826351   -0.042164
H      -0.903958    1.782905   -0.015501
H       2.311344   -3.632807    0.001541
H       3.183728   -2.123895    0.021583
