8

N       0.007904    1.368697    0.153787
C      -0.041082    0.011780    0.041335
N      -1.120465   -0.724754   -0.000214
O      -0.625623   -2.004588   -0.043637
N       0.742857   -1.963525   -0.034537
N       1.111224   -0.759080    0.016878
H       0.866210    1.791276   -0.164021
H      -0.830823    1.861985   -0.109600
