16

O      -0.214337    0.201503   -0.709272
C      -0.092897    1.252654   -0.121236
N       1.092225    1.778995    0.304055
C       2.354064    1.084004    0.131668
C       3.429682    1.927342   -0.557100
O       4.058315    2.667545    0.496052
C       4.213525    1.778974    1.586239
C       3.018972    0.822343    1.511784
O       2.657401    0.046878    2.350947
H      -0.944795    1.913913    0.127638
H       1.084696    2.661654    0.791413
H       2.122737    0.144642   -0.372682
H       4.162767    1.277892   -1.060488
H       3.029316    2.640873   -1.278798
H       5.146966    1.194436    1.516906
H       4.228760    2.342160    2.522893
