16

O      -0.013625   -0.035095   -0.251405
C      -0.023831    1.164163   -0.083000
N      -1.177599    1.898751    0.006570
C      -1.272611    3.351846   -0.003495
C      -0.146507    3.990303    0.782305
C       0.332399    3.375690    2.052037
C       1.197092    3.274070    0.794933
C       1.287388    1.976837    0.078993
O       2.314876    1.545209   -0.382273
H      -2.019141    1.364605   -0.161499
H      -1.266495    3.743662   -1.031606
H      -2.237116    3.628135    0.437462
H      -0.108344    5.071315    0.697834
H       0.707375    4.027360    2.832089
H      -0.150639    2.472296    2.406250
H       2.110088    3.857247    0.765709
