22

C       0.118054    1.300952   -0.513227
C      -0.127416   -0.131186   -0.024124
C       0.900427   -0.621569    0.988356
C       0.933862    0.160655    2.302388
C       1.664191   -0.482243    3.486258
C       1.279870   -2.084035    0.952334
N       2.148181   -1.081608    0.384433
C       3.453522   -0.838089    0.747567
O       4.269637   -1.685221    1.026909
H       1.122267    1.395297   -0.939461
H      -0.602117    1.571601   -1.290744
H       0.021268    2.034077    0.293326
H      -1.125349   -0.209263    0.425812
H      -0.112386   -0.810546   -0.882748
H       1.364632    1.149510    2.102903
H      -0.108270    0.349389    2.589020
H       1.677961    0.210953    4.332552
H       1.163111   -1.395908    3.818755
H       2.702772   -0.734335    3.253874
H       1.622995   -2.565810    1.862530
H       0.782530   -2.742678    0.244322
H       3.702091    0.239243    0.678704
