18

C      -0.784097    1.352082    0.025363
C      -0.016349    0.049272   -0.031448
O       1.157610    0.127045   -0.878460
C       1.985854   -0.523512    0.111140
C       3.159133    0.352184    0.577429
C       2.587643    1.075611    1.775860
C       1.362690    0.656791    2.099730
C       0.858495   -0.414113    1.172185
H      -0.155051    2.156931    0.414097
H      -1.122561    1.629617   -0.978062
H      -1.667419    1.251134    0.665772
H      -0.674130   -0.762044   -0.377803
H       2.283023   -1.525816   -0.216511
H       4.044020   -0.241291    0.843785
H       3.459813    1.032100   -0.228710
H       3.139817    1.843536    2.307407
H       0.776415    1.037356    2.929101
H       0.511939   -1.316725    1.681827
