18

O      -0.231639    1.568238   -0.014429
C       0.040506    0.187920   -0.037367
C       1.058069   -0.333264   -1.113901
C       1.810092   -1.150498   -0.013076
C       1.080953   -0.270179    1.003581
O       1.338018    0.171856    2.088357
C      -1.252534   -0.617062   -0.015235
C      -2.390976   -0.170368    0.819905
N      -2.450836   -0.057396   -0.650193
H       0.097976    1.908574    0.827351
H       0.628820   -0.900144   -1.940301
H       1.661312    0.490542   -1.498154
H       1.485465   -2.194501    0.036270
H       2.900622   -1.116409    0.016414
H      -1.116939   -1.682838   -0.189668
H      -3.064315   -0.902278    1.255901
H      -2.262162    0.741713    1.394653
H      -2.252079    0.910716   -0.898229
