13

O      -0.031236    1.270263    0.009389
C       1.212530    1.758136   -0.000053
C       2.111717    0.720513   -0.014490
C       3.518216    0.527982   -0.029241
C       3.961610   -0.763493   -0.040636
N       3.152294   -1.879777   -0.038873
C       1.857554   -1.732586   -0.025460
C       1.260283   -0.433803   -0.012524
N      -0.025822   -0.112461    0.001778
H       1.297920    2.832984    0.004997
H       4.212578    1.359892   -0.031446
H       5.025260   -0.978609   -0.052175
H       1.234416   -2.623656   -0.024264
