16

C      -0.034129    1.515324    0.087369
O       1.251071    1.928380   -0.384286
C       2.105839    0.810021   -0.618486
C       1.245795   -0.401695   -0.379002
N       1.626443   -1.664316   -0.531782
C       0.692983   -2.585890   -0.257897
C      -0.600920   -2.282012    0.163454
C      -0.973799   -0.946643    0.318655
C      -0.016964    0.015374    0.036160
H      -0.198126    1.894595    1.107979
H      -0.811409    1.954730   -0.553845
H       2.492849    0.847799   -1.645524
H       2.968897    0.836673    0.063158
H       0.995728   -3.622507   -0.382070
H      -1.303731   -3.082174    0.366227
H      -1.974369   -0.681997    0.646720
