16

O       0.364235    0.320822   -0.803108
C       0.098002    1.222803   -0.049526
O       1.005426    1.761245    0.821129
C       2.315396    1.196387    0.764142
C       3.160755    1.895670   -0.210641
N       3.840138    2.446998   -0.964125
C      -1.211387    1.894664    0.081704
C      -2.031073    2.055086   -1.190892
C      -2.450613    1.050360   -0.174176
H       2.742602    1.309221    1.762992
H       2.261118    0.137808    0.497460
H      -1.262269    2.676467    0.827651
H      -2.596852    2.973902   -1.289069
H      -1.572195    1.689295   -2.101605
H      -2.275265    0.005011   -0.398732
H      -3.314876    1.257452    0.445730
