16

C       0.063004    1.469843   -0.018798
C       0.061760   -0.036909    0.017181
N       0.051350   -0.683732   -1.158980
C       0.049904   -2.008172   -1.168574
O       0.039263   -2.626132   -2.374720
C       0.058693   -2.787726   -0.008682
C       0.069478   -2.126836    1.206129
C       0.071143   -0.731527    1.229570
O       0.081897   -0.110185    2.448193
H       0.953684    1.891330    0.466364
H       0.053425    1.806511   -1.055956
H      -0.817283    1.893200    0.483390
H       0.034530   -1.918180   -3.032655
H       0.056981   -3.868219   -0.077130
H       0.076717   -2.668391    2.145555
H       0.082603    0.842909    2.318465
