18

O      -0.045589   -0.081208    0.160392
C      -0.053766    1.120163    0.048061
C      -1.334006    1.944048    0.058248
C      -1.356919    3.014663   -1.049737
C      -0.090255    3.876601   -1.027176
C       1.186346    3.013460   -1.169423
C       1.241883    1.924335   -0.066584
C       1.255349    2.410274   -2.506161
N       1.297837    1.943953   -3.562963
H      -2.183537    1.261081   -0.009963
H      -1.387468    2.441530    1.038176
H      -1.445818    2.526546   -2.027335
H      -2.242041    3.647498   -0.933589
H      -0.119161    4.624912   -1.824289
H      -0.020208    4.419513   -0.076475
H       2.068505    3.655938   -1.068689
H       1.397506    2.437164    0.891954
H       2.072585    1.233023   -0.218258
