18

O       0.030472    1.432222   -0.067574
C       0.051099    0.040603    0.161966
C      -1.342553   -0.560408   -0.046868
O      -1.832932   -0.189825   -1.332923
C      -1.390010   -2.074688    0.137890
C      -2.795558   -2.716896    0.002113
N      -2.646770   -3.760180   -1.027957
C      -1.469785   -3.641350   -1.470801
O      -0.637840   -2.696431   -0.948508
H      -0.504411    1.554270   -0.862659
H       0.768364   -0.473633   -0.499886
H       0.381990   -0.117963    1.194680
H      -2.031480   -0.100570    0.671832
H      -1.338864   -0.717557   -1.974281
H      -0.894768   -2.353966    1.074672
H      -3.145044   -3.158374    0.938940
H      -3.541184   -1.986410   -0.329731
H      -1.025245   -4.235621   -2.261500
