16

C       0.084295    1.500168    0.068212
C      -0.044535    0.011089   -0.056580
C       0.101054   -0.668290   -1.217493
C      -0.038629   -2.113884   -1.252531
O       0.068720   -2.826901   -2.230903
N      -0.329288   -2.686450    0.002281
C      -0.487304   -2.034696    1.214191
N      -0.749925   -2.533503    2.359418
N      -0.327645   -0.657108    1.107405
H       0.888413    1.763499    0.764928
H       0.303873    1.949960   -0.900188
H      -0.842639    1.939537    0.454284
H       0.323590   -0.162663   -2.145240
H      -0.429454   -3.691191   -0.009087
H      -0.845267   -3.545024    2.318781
H      -0.438211   -0.160526    1.977538
