18

C      -0.020268    1.524047    0.046999
C       0.062861    0.034650   -0.041725
C       0.002809   -0.752024   -1.129735
C      -0.017945   -2.186182   -0.686272
C      -1.278961   -2.538731    0.172680
C      -0.484325   -2.948418    1.345174
C       0.726706   -2.210514    0.692188
C       0.108818   -0.876197    1.154220
N      -1.223401   -1.654657    1.375949
H       0.835111    1.941658    0.592769
H      -0.049771    1.985256   -0.944132
H      -0.920356    1.834717    0.592414
H      -0.124927   -0.416653   -2.152852
H       0.253043   -2.959086   -1.404792
H      -2.258640   -2.846897   -0.168035
H      -0.589442   -3.725628    2.089512
H       1.790854   -2.434061    0.755764
H       0.423941   -0.453467    2.108281
