20

C      -0.302525    1.252398   -0.295917
C       1.096655    1.187197    0.257691
C       0.290467   -0.080195    0.078067
C      -0.199691   -0.824610    1.276123
C       0.642080   -1.965336    1.836035
O      -0.206706   -2.668124    2.739488
C      -1.544097   -2.565914    2.251705
C      -1.608386   -1.218921    1.560031
N      -0.990111   -0.093692    2.276219
H      -1.072303    1.644179    0.358286
H      -0.433482    1.471806   -1.349657
H       1.933263    1.364939   -0.408783
H       1.241623    1.540763    1.272671
H       0.590488   -0.725900   -0.743607
H       0.981504   -2.614673    1.012009
H       1.521979   -1.636089    2.399224
H      -1.777135   -3.369371    1.533794
H      -2.213240   -2.667565    3.113075
H      -2.439321   -0.979985    0.904705
H      -0.725154   -0.386978    3.215785
