21

C      -0.484359    1.167524    0.033714
N       0.083404   -0.163753    0.176574
C       1.477992   -0.345738   -0.208635
C       1.072202   -0.444562    1.223003
C       1.537768    0.570416    2.250684
C       0.622426    0.654527    3.457333
C       0.755226   -0.341834    4.582759
C       1.158493    1.097595    4.793921
H       0.224010    1.996321    0.191862
H      -0.884913    1.266015   -0.980686
H      -1.316079    1.288500    0.735896
H       1.706663   -1.233226   -0.793866
H       2.043644    0.541756   -0.495273
H       0.948125   -1.443538    1.641140
H       2.542315    0.277357    2.585539
H       1.651374    1.559567    1.793419
H      -0.392638    0.968046    3.227791
H      -0.145628   -0.702235    5.066761
H       1.545761   -1.082542    4.513495
H       2.218582    1.320186    4.863931
H       0.533232    1.721641    5.422787
