17

O      -0.083226    1.473456   -0.078194
C       0.001931    0.049628   -0.005203
C       0.661831   -0.449962    1.268381
C      -0.138165   -1.266730    1.973813
C       0.166455   -1.903640    3.201297
C       0.390252   -2.474540    4.238711
C      -1.477363   -1.409611    1.303067
C      -2.275341   -0.126608    1.210886
C      -1.398438   -0.552466    0.060512
H       0.813095    1.821354   -0.127807
H       0.536068   -0.329438   -0.891985
H       1.653252   -0.136002    1.574858
H       0.598100   -2.966965    5.156142
H      -1.987347   -2.364850    1.325684
H      -3.346852   -0.213527    1.066254
H      -1.959834    0.717882    1.812320
H      -1.870838   -0.861126   -0.863255
