18

C       0.246629    1.158166    1.139058
C      -0.264080    0.531990   -0.155183
O       0.711244   -0.401426   -0.692066
C      -1.596981   -0.147622   -0.022781
C      -2.017594   -1.153263   -0.871288
O      -1.393461   -1.760655   -1.902876
N      -3.277935   -1.533156   -0.523523
C      -3.700418   -0.775819    0.558039
C      -2.683395    0.081836    0.884594
H       1.236924    1.593593    0.981270
H      -0.429151    1.948394    1.479673
H       0.311196    0.407891    1.935421
H      -0.296338    1.310998   -0.928854
H       0.841431   -1.077418   -0.014738
H      -0.477369   -1.430637   -1.865173
H      -3.789742   -2.270005   -0.976589
H      -4.677192   -0.922615    0.987052
H      -2.708272    0.806758    1.683984
