14

O      -0.333349    0.124177    0.326945
C      -0.169267    1.260572    0.025383
O      -1.062597    2.116037   -0.565581
C      -0.107208    3.226598   -0.533858
C       0.954309    2.311191    0.108304
C       1.455561    2.644839    1.486132
C       2.700551    2.072649    2.010085
O       2.649774    3.425768    1.552177
H       0.104276    3.585621   -1.542074
H      -0.480149    4.038012    0.094903
H       1.794614    2.073772   -0.548332
H       0.687318    2.941263    2.202164
H       2.820677    1.944172    3.084031
H       3.279327    1.389225    1.390923
