18

O       0.555788    0.702822   -0.849628
C      -0.010380   -0.287190   -0.038226
C       0.075865   -0.169884    1.512527
C      -1.420249   -0.620869    1.621470
C      -2.417636    0.554180    1.820030
C      -2.358681    0.854847    0.294795
C      -1.548614   -0.447909    0.047016
C      -1.675809   -1.865173    2.303866
N      -1.889941   -2.865279    2.845608
H       0.223563    1.561918   -0.568426
H       0.436879   -1.228002   -0.371236
H       0.806184   -0.816578    1.999841
H       0.222415    0.854065    1.870235
H      -3.402324    0.203592    2.134840
H      -2.087973    1.337646    2.507153
H      -3.330256    0.881945   -0.199846
H      -1.831487    1.775532    0.025101
H      -2.019611   -1.195393   -0.590222
