17

N       0.114394   -1.257743   -0.316161
C       0.043786   -0.105161   -0.271087
C      -0.023879    1.352071   -0.205731
C       1.276798    1.978335    0.333662
N       1.138159    3.427149    0.300960
C       1.701812    4.107036    1.187726
C       1.798496    5.581420    1.514050
C       2.651347    5.088071    2.701331
O       2.483046    3.705553    2.255349
H      -0.230112    1.751783   -1.203838
H      -0.865500    1.642145    0.432252
H       1.491851    1.589535    1.336443
H       2.109024    1.678469   -0.314741
H       2.321763    6.180359    0.767093
H       0.850581    6.059591    1.765218
H       3.705967    5.371473    2.694807
H       2.224962    5.230456    3.696749
