17

C      -0.042949    1.564198    0.010961
C       0.004642    0.034513    0.002459
C      -1.388095   -0.592983    0.012311
C      -1.379111   -2.099846    0.004240
O      -0.376691   -2.780066   -0.009002
C      -2.772488   -2.778654    0.014082
N      -2.681013   -4.126334    0.005838
O      -3.800943   -2.129347    0.027736
H       0.964907    1.989990    0.003690
H      -0.574636    1.951188   -0.865433
H      -0.557962    1.941889    0.901260
H       0.552133   -0.321103   -0.877519
H       0.568625   -0.330287    0.868149
H      -1.977020   -0.273501    0.883110
H      -1.993317   -0.264385   -0.843801
H      -1.766868   -4.549133   -0.005713
H      -3.514368   -4.689051    0.010645
