14

C      -0.031727    1.417297    0.009816
O       0.048902    0.006741    0.001523
C      -1.224212   -0.596332    0.010122
C      -1.087435   -2.044993    0.001223
C      -1.009477   -3.253825   -0.005869
C      -0.915268   -4.601384   -0.013855
C      -0.833130   -5.814345   -0.021092
C      -0.741806   -7.170374   -0.029191
N      -0.664802   -8.331398   -0.036207
H       0.992746    1.793580    0.002341
H      -0.561416    1.799777   -0.876153
H      -0.544879    1.790222    0.909486
H      -1.801737   -0.293793    0.902149
H      -1.818114   -0.284463   -0.867828
