20

C      -0.039384    1.517932    0.021297
N       1.487533    1.281850    0.035946
C       1.186754    0.058279    0.924073
C       2.209107   -1.023457    0.599239
C       1.876413   -1.141594   -0.905265
C       0.638080   -2.086986   -1.098185
C      -0.613138   -1.342866   -0.470141
C       0.042802   -0.015177   -0.131220
C       1.215731    0.231783   -1.082169
H      -0.416346    1.935106    0.959746
H      -0.382410    2.104444   -0.836087
H       0.966389    0.297940    1.966619
H       3.231181   -0.678080    0.784885
H       2.047538   -1.951172    1.156819
H       2.714887   -1.403334   -1.552051
H       0.466765   -2.257555   -2.165967
H       0.812397   -3.065757   -0.641542
H      -1.421999   -1.248139   -1.200532
H      -1.014094   -1.866438    0.402632
H       1.059007    0.643822   -2.080435
