18

C      -0.214931    1.627998   -0.726079
N      -0.829159    0.366742   -0.277348
C       0.011714   -0.810853   -0.102995
C      -0.573125   -0.111394    1.076393
C       1.176249    1.950808   -0.283573
C       2.400937    1.806935   -0.865034
C       3.366219    2.307185    0.067915
C       2.658049    2.718281    1.150511
O       1.328626    2.510848    0.957777
H      -0.221971    1.609682   -1.820942
H      -0.885422    2.434620   -0.409434
H      -0.414201   -1.743586   -0.462629
H       1.084770   -0.707008   -0.249665
H       0.110331    0.451201    1.706860
H      -1.436162   -0.524365    1.591897
H       2.590054    1.402806   -1.847674
H       4.436482    2.356983   -0.056536
H       2.929963    3.163190    2.093548
