19

C       0.047569    0.896942   -0.414282
C       1.219429    1.838847   -0.097370
C       2.547834    1.119594    0.009947
O       3.451597    1.575116    1.024112
C       2.924942    0.250548    1.137135
C       2.069466   -0.085165    2.346855
O       0.828263    0.592405    2.435908
C      -0.228112   -0.044941    1.760160
O       0.002758   -0.267633    0.400940
H      -0.900672    1.450996   -0.334262
H       0.123949    0.516364   -1.437927
H       1.275705    2.591302   -0.893748
H       1.040490    2.364116    0.840938
H       3.034782    0.904641   -0.944214
H       3.666501   -0.527649    0.935275
H       1.911972   -1.174501    2.360457
H       2.630689    0.182537    3.249450
H      -0.409433   -1.043309    2.183740
H      -1.101073    0.603117    1.923894
