15

N      -0.155125    1.292801   -0.418983
C      -0.009692    0.103232    0.008972
C      -1.229607   -0.795762    0.041530
N      -1.109442   -1.901212    0.978776
C       0.052752   -2.487777    1.362356
O       0.116169   -3.530607    1.983827
C       1.323804   -1.731127    1.006327
N       2.479665   -2.170819    1.289285
N       1.176086   -0.495493    0.391948
H       0.732205    1.797274   -0.458161
H      -2.087553   -0.175492    0.305399
H      -1.396940   -1.165903   -0.980581
H      -1.941550   -2.433308    1.192089
H       2.363811   -3.072026    1.759001
H       2.035646    0.028357    0.284928
