17

C      -0.020508    1.636018   -0.013435
C      -0.027597    0.117385    0.001334
O      -1.308886   -0.392095   -0.234975
C       1.196761   -0.643930   -0.637478
N       1.998352   -0.117166    0.534692
C       0.712700   -0.643761    1.138368
C       0.829080   -1.908568    0.211432
C      -0.265750   -2.811826   -0.110045
N      -1.050236   -3.623530   -0.360940
H       0.967991    2.034396    0.209002
H      -0.328962    1.999463   -1.001848
H      -0.741423    2.013757    0.717885
H      -1.665677    0.012125   -1.032627
H       1.576167   -0.619774   -1.660172
H       2.760368   -0.767302    0.743152
H       0.517434   -0.624668    2.211060
H       1.708768   -2.513233    0.453055
