19

C       0.522304    1.193208    0.119127
C      -0.033958   -0.230314   -0.000807
C       0.412121   -1.022462   -1.277847
C       1.271415   -1.899164   -0.331495
C       2.773920   -1.689803   -0.440477
O       3.357801   -2.261287    0.719040
N       0.617895   -1.265465    0.835851
C      -1.493887   -0.195544    0.203743
N      -2.640536   -0.156055    0.343861
H       1.596112    1.199615   -0.085391
H       0.027591    1.865390   -0.588692
H       0.356808    1.584318    1.127919
H      -0.398318   -1.552242   -1.776805
H       0.959558   -0.424547   -2.009443
H       1.069428   -2.975000   -0.376323
H       3.138531   -2.169904   -1.363472
H       3.005856   -0.614754   -0.512984
H       4.309808   -2.132101    0.679674
H       1.241657   -0.930435    1.562297
