20

C      -0.078311    1.504449   -0.005266
C       0.058489    0.013892    0.031613
C       0.822290   -0.816344   -0.916435
C       1.830205   -1.849223   -0.434529
C       1.610396   -2.364155    1.007493
O       0.916244   -1.454122    1.847947
C      -0.229395   -0.896204    1.236671
C      -1.059473   -1.770194    0.255064
N      -0.662054   -0.935450   -0.924821
H       0.719234    1.981421    0.576438
H      -0.017645    1.873746   -1.033381
H      -1.037806    1.827851    0.413727
H       1.140785   -0.306977   -1.823477
H       1.869043   -2.702432   -1.122137
H       2.809091   -1.358890   -0.496617
H       1.082933   -3.327656    0.989199
H       2.573739   -2.538071    1.494291
H      -0.809088   -0.435030    2.038309
H      -0.829368   -2.835040    0.169373
H      -2.133820   -1.659841    0.419723
