13

C      -0.019381    1.439742    0.118478
C      -0.019642   -0.034622   -0.054384
N      -0.026050   -0.732452   -1.138447
C      -0.001395   -2.063099   -0.718827
C       0.009758   -2.089233    0.638622
N      -0.057545   -3.073724    1.612199
O      -0.002609   -0.803478    1.087609
H       0.874311    1.780413    0.653067
H      -0.040084    1.905796   -0.867113
H      -0.891752    1.776031    0.689333
H       0.005433   -2.885375   -1.415145
H       0.163983   -3.989953    1.246983
H       0.515660   -2.868113    2.421657
