23

C       0.050821    1.517067    0.199075
C      -0.036965    0.027322    0.081896
C       0.224322   -0.715169   -0.996509
C       0.050470   -2.194083   -0.768455
C       1.317131   -3.065843   -1.016744
C       1.454652   -3.928980    0.251164
C       0.977699   -2.990522    1.369255
C      -0.255316   -2.284757    0.769371
C      -0.482833   -0.830106    1.248789
H       0.755483    1.811655    0.987677
H       0.376089    1.979169   -0.737128
H      -0.918776    1.952495    0.474157
H       0.542145   -0.311538   -1.953824
H      -0.783737   -2.584325   -1.365460
H       1.247808   -3.660916   -1.931786
H       2.196732   -2.419591   -1.118338
H       0.789788   -4.799952    0.188648
H       2.470051   -4.306835    0.405215
H       0.756770   -3.506660    2.308609
H       1.758713   -2.248528    1.582004
H      -1.141638   -2.899578    0.951066
H       0.078750   -0.602131    2.165578
H      -1.537239   -0.633813    1.488695
