14

N       0.085280    1.213680    0.418421
C       0.090404   -0.036420   -0.116585
O       1.069147   -0.531247   -0.638464
C      -1.249554   -0.777301   -0.063331
C      -1.000847   -2.270420    0.203258
O      -0.536776   -2.517818    1.516512
C      -2.208116   -3.064827   -0.094612
N      -3.171410   -3.671790   -0.292610
H       0.938962    1.747535    0.392806
H      -0.715120    1.601487    0.884851
H      -1.929631   -0.366810    0.691065
H      -1.734063   -0.655371   -1.038968
H      -0.189839   -2.585673   -0.460775
H      -1.265149   -2.370917    2.130962
