15

O       0.036023   -0.075243    0.393546
C      -0.004708    1.073848    0.032419
C       1.209681    1.933036   -0.043005
C       1.460291    2.889390   -1.221515
C       0.503294    3.011951   -2.356341
O       0.864808    3.085389   -3.503685
C       1.118241    3.439026    0.155631
C      -0.141651    4.081786    0.409292
C      -1.177198    4.644727    0.645948
H      -0.961344    1.560039   -0.246176
H       2.097994    1.445248    0.343314
H       2.496708    2.966584   -1.531616
H      -0.570541    3.052014   -2.083538
H       1.958084    3.875623    0.688555
H      -2.093593    5.140505    0.853566
