18

O      -0.147767    1.523626   -0.065337
C       0.045181    0.123113    0.116226
C      -1.313046   -0.537196   -0.034847
C      -1.972321   -0.653917   -1.446304
C      -2.176141   -2.158234   -1.216717
C      -0.863579   -2.838786   -0.987301
O       0.329831   -2.444887   -1.611064
C      -1.435925   -2.057126    0.147805
H       0.717252    1.942258   -0.086394
H       0.746217   -0.287725   -0.619233
H       0.445164   -0.095431    1.121132
H      -2.008202   -0.030238    0.641683
H      -2.905294   -0.094436   -1.525356
H      -1.332527   -0.391531   -2.293909
H      -3.071966   -2.714930   -1.467433
H      -0.947305   -3.917324   -0.843802
H       0.250653   -2.643629   -2.550343
H      -1.667195   -2.541522    1.090195
