20

C      -0.153889    1.485586    0.032972
C      -0.071651   -0.040277    0.001173
C      -1.398964   -0.684247   -0.398223
C       1.129330   -0.576264   -0.769432
N       1.485507   -0.542037   -1.970871
O       1.735061   -1.142919    0.335042
C       0.654914   -0.693416    1.190552
C       0.924233   -0.230526    2.577025
C       0.175685   -1.535547    2.317621
H       0.798863    1.931557    0.331092
H      -0.412401    1.867833   -0.958728
H      -0.923987    1.817507    0.738032
H      -1.687862   -0.356471   -1.400975
H      -1.328430   -1.775341   -0.404742
H      -2.194544   -0.395681    0.297558
H       2.374852   -1.023928   -2.113120
H       1.945025   -0.303468    2.936039
H       0.368041    0.620412    2.956575
H      -0.889637   -1.572205    2.520721
H       0.706974   -2.461877    2.507022
