21

C       0.038423    1.518893    0.197455
C      -0.050669   -0.008147    0.020894
C       0.347556   -0.656804    1.334600
O       1.308614   -1.360602    1.504847
C      -1.462811   -0.493899   -0.395891
C      -1.968479    0.158490   -1.691397
C      -1.467580   -2.003549   -0.555543
C      -1.919170   -2.921025    0.498539
O      -2.748954   -2.628571   -0.628495
H       1.039256    1.812743    0.527862
H      -0.167099    2.036279   -0.742125
H      -0.681736    1.874581    0.943230
H       0.681414   -0.333139   -0.727996
H      -0.337167   -0.407385    2.182353
H      -2.166914   -0.247555    0.411427
H      -1.263514   -0.001925   -2.515383
H      -2.926347   -0.285941   -1.974799
H      -2.117258    1.234886   -1.577731
H      -0.747879   -2.388613   -1.282104
H      -1.524235   -3.934506    0.541992
H      -2.269082   -2.519526    1.448967
