17

O      -0.082123   -0.722345    0.117202
C       0.052113    0.471521    0.022569
C       0.940387    1.275142    0.987775
C       2.060646    1.899590    0.296914
C       2.980218    2.393139   -0.299040
C      -0.673950    1.295170   -1.037855
C      -1.983670    0.707215   -1.587596
C      -2.644255    1.932262   -0.922670
O      -1.368590    2.410811   -0.425075
H       0.310515    2.045970    1.448417
H       1.287309    0.590201    1.766750
H       3.797215    2.838319   -0.810822
H       0.056272    1.637989   -1.782978
H      -2.057607    0.663851   -2.674056
H      -2.235681   -0.264335   -1.162784
H      -3.099187    2.655230   -1.608710
H      -3.344192    1.722572   -0.106071
