17

C      -0.114891    1.360193    0.550552
N       0.046779    0.059992   -0.085928
C      -1.147883   -0.670043   -0.491383
C      -1.333413   -1.975427    0.281919
N      -0.363850   -3.011762   -0.006058
C       0.749724   -2.795516   -0.544268
O       1.384409   -1.640162   -0.949962
C       1.302939   -0.381762   -0.348597
O       2.324039    0.224025   -0.156336
H       0.871031    1.735945    0.818198
H      -0.596583    2.071988   -0.130473
H      -0.729552    1.270592    1.453468
H      -2.004561   -0.015791   -0.311047
H      -1.120297   -0.876840   -1.568034
H      -1.323194   -1.769043    1.360216
H      -2.325126   -2.388135    0.058111
H       1.400179   -3.630520   -0.797873
