19

O       0.135849    1.420552   -0.090857
C       0.027063    0.031109   -0.033705
C       0.117880   -0.652128    1.351245
O      -0.866874    0.105966    2.088560
C      -2.046576   -0.111481    1.247624
C      -2.791897   -1.295966    1.860387
C      -1.749654   -2.444487    1.710958
C      -0.702143   -1.839832    0.765577
C      -1.365766   -0.662345   -0.028134
H      -0.198953    1.740435    0.758373
H       0.695387   -0.402045   -0.780930
H       1.028938   -0.749152    1.940847
H      -2.608262    0.819819    1.158410
H      -3.068871   -1.096441    2.898339
H      -3.708974   -1.506877    1.298379
H      -1.309968   -2.725080    2.672328
H      -2.194635   -3.346610    1.281987
H      -0.105509   -2.539985    0.181307
H      -1.981644   -0.797346   -0.915941
