20

C      -0.107770    1.484700    0.064458
C      -0.034395   -0.048192    0.004165
C      -1.409256   -0.680422    0.211615
C       0.785377   -0.568300   -1.232709
O       0.899172    0.368857   -2.275058
C       2.027348   -0.813917   -0.316380
C       1.099529   -0.602009    0.858943
N       1.115577   -0.868883    2.095874
O       2.350435   -1.432071    2.478787
H       0.872683    1.946571   -0.074029
H      -0.766778    1.864990   -0.721274
H      -0.500805    1.797228    1.036459
H      -2.108984   -0.339982   -0.559549
H      -1.356047   -1.772664    0.170471
H      -1.817112   -0.404790    1.188914
H       0.369826   -1.518771   -1.595174
H       1.429820   -0.020417   -2.977012
H       2.533061   -1.780684   -0.373631
H       2.770521   -0.015602   -0.416683
H       2.213587   -1.596342    3.417911
