19

C       0.212837    1.293652   -0.139156
O      -0.279765    0.018268    0.217754
C       0.514687   -0.633284    1.168879
C       0.101408   -2.051371    1.512575
C       0.587344   -3.019932    0.448846
C       0.968273   -2.468355   -0.920052
O       1.961026   -1.464802   -0.658551
C       1.921876   -1.194677    0.730575
C       1.563434   -2.505513    1.461651
H       1.192105    1.225554   -0.630823
H      -0.504052    1.734627   -0.835812
H       0.301638    1.952101    0.739774
H       0.620777   -0.021185    2.079631
H      -0.668648   -2.333538    2.220510
H       0.225960   -4.038338    0.527801
H       1.414369   -3.242215   -1.556666
H       0.116099   -2.020272   -1.441738
H       2.812702   -0.632771    1.006898
H       2.151053   -3.086408    2.157706
