15

N       0.148568    1.348753    0.175507
C      -0.010466   -0.017205    0.009941
N       1.159996   -0.719892   -0.149239
H       1.043085   -1.723398   -0.139076
H       1.940227   -0.393009    0.403626
C      -1.220938   -0.646977    0.012161
C      -2.566577   -0.200913   -0.027831
N      -3.410915   -1.194446   -0.014172
C      -2.630487   -2.361727    0.027824
N      -2.972452   -3.580669    0.047583
O      -1.279852   -2.029164    0.043411
H       0.804320    1.767989   -0.472396
H      -0.709796    1.875248    0.239396
H      -2.900715    0.830316   -0.071731
H      -3.989567   -3.626831    0.031391
