20

C      -0.654922    1.312635    0.163120
C       0.000444   -0.078470   -0.033969
C       0.688225   -0.131131   -1.382076
C       1.938105    0.178163   -1.727390
C       3.069327    0.628397   -0.838063
C       3.108857   -0.003504    0.547796
O       1.985805    0.330141    1.372268
C       0.840173   -0.411855    1.179056
N       0.429251   -1.245966    2.036987
H       0.111499    2.086528    0.254455
H      -1.290328    1.557224   -0.693005
H      -1.270804    1.320859    1.067040
H      -0.797203   -0.826038   -0.033079
H       0.009031   -0.401112   -2.188867
H       2.180714    0.131317   -2.787005
H       4.024960    0.399671   -1.326572
H       3.045659    1.722060   -0.727320
H       3.190901   -1.095596    0.468766
H       3.980519    0.364006    1.096974
H       1.096945   -1.294830    2.810728
