18

C      -0.046200    1.548333    0.000895
C       0.040489    0.021279   -0.019305
C       0.750073   -0.514565   -1.269237
C       1.028548   -1.998106   -1.080334
O       1.775760   -2.234581    0.122127
C       1.466561   -1.433243    1.179365
N       0.688187   -0.429604    1.214086
C       2.163550   -1.857794    2.361352
C       2.749470   -2.215605    3.347331
H       0.956024    1.989100   -0.001799
H      -0.590220    1.919798   -0.873748
H      -0.559347    1.884604    0.905154
H      -0.986512   -0.374316   -0.003268
H       0.144476   -0.359024   -2.167990
H       1.697541    0.018681   -1.413244
H       0.090973   -2.566732   -1.021497
H       1.633823   -2.417737   -1.887027
H       3.263000   -2.523892    4.224553
