13

C      -0.000194    1.394768    0.012200
C       1.419692    1.953842    0.035766
O       2.129439    1.562169    1.227281
C       1.920884    0.264995    1.494345
N       2.610121   -0.471116    2.312132
O       2.006269   -1.712494    2.244067
N       0.933451   -1.728702    1.372830
C       0.876629   -0.515860    0.912979
O      -0.008215   -0.046306    0.021875
H      -0.568514    1.762492    0.875164
H      -0.508665    1.693186   -0.906077
H       1.978424    1.611142   -0.843604
H       1.396214    3.044814    0.043424
