20

C       0.450157    1.098250    0.692867
C      -0.454060    0.716780   -0.477464
N       0.278836   -0.084998   -1.457148
C      -0.509791   -0.697206   -2.562804
C       0.519806   -1.849452   -2.709976
O      -0.460372   -2.915693   -2.706075
C      -1.011927   -1.961001   -1.742878
C      -2.309660   -2.339118   -1.099747
C       0.419356   -1.548000   -1.190755
H       0.778653    0.211102    1.245054
H       1.341695    1.618403    0.331721
H      -0.077261    1.750759    1.395375
H      -1.360749    0.216820   -0.096033
H      -0.790895    1.624913   -0.992980
H      -1.021113   -0.121992   -3.336821
H       1.396772   -1.924130   -3.349454
H      -2.194705   -3.279253   -0.550660
H      -2.652897   -1.569486   -0.405233
H      -3.077188   -2.484154   -1.866868
H       0.994735   -1.971703   -0.366446
