16

C      -0.194066    1.531809   -0.051215
C       0.055707    0.012007    0.013615
C       0.777348   -0.500736   -1.188618
C       2.043046   -0.919179   -1.335594
C       2.263597   -1.309736   -2.742364
O       3.230220   -1.730025   -3.301329
O       1.054605   -1.102171   -3.418418
C       0.130610   -0.619246   -2.517942
N      -1.068990   -0.336121   -2.790912
H       0.749393    2.082779   -0.109417
H      -0.798845    1.784041   -0.924971
H      -0.726995    1.861414    0.844869
H       0.630480   -0.236621    0.911185
H      -0.909390   -0.501732    0.083311
H       2.824656   -0.988524   -0.593337
H      -1.272911   -0.511921   -3.776334
