21

C       0.042657    1.584915    0.130013
C      -0.023576    0.062731   -0.025051
C      -1.462679   -0.455844   -0.023470
O      -2.018069   -0.195509    1.258538
C       0.701450   -0.428160   -1.274254
O       0.124751    0.117883   -2.440218
C       1.152911    0.078973   -3.415520
C       2.419257    0.368762   -2.591432
O       2.064016   -0.023512   -1.268851
H       1.079440    1.918907    0.212449
H      -0.408901    2.079390   -0.735305
H      -0.500795    1.888973    1.026749
H       0.486980   -0.407824    0.825018
H      -2.033956    0.045538   -0.818658
H      -1.470890   -1.536618   -0.242250
H      -2.954017   -0.412465    1.228838
H       0.665001   -1.533509   -1.331421
H       1.204835   -0.913191   -3.889231
H       0.939001    0.828233   -4.180503
H       3.286098   -0.205516   -2.937306
H       2.676985    1.434839   -2.596898
