18

C      -0.130326    1.555180    0.055343
C       0.038622    0.046977   -0.035995
C       0.867972   -0.526341   -1.210029
C       2.305527   -0.113119   -0.815811
C       2.221815   -0.593836    0.634518
C       1.345086   -1.814091    0.672980
N       0.837994   -0.487411    1.119300
C       0.894845   -2.000389   -0.752621
O       0.635839   -3.006108   -1.354228
H       0.826774    2.082712    0.031098
H      -0.744961    1.922729   -0.772270
H      -0.627742    1.813351    0.994867
H      -0.949067   -0.427583    0.001492
H       0.533688   -0.350394   -2.228357
H       3.065930   -0.648749   -1.391586
H       2.498860    0.958888   -0.901095
H       3.013776   -0.437459    1.356740
H       1.424348   -2.617437    1.392888
