25

C      -0.283684    1.515561    0.097459
C       0.039011    0.019578   -0.017207
C       0.749967   -0.450220   -1.313899
C       0.736003   -2.001792   -1.309582
C       1.587262   -2.709073   -2.372766
C       0.025760    0.077553   -2.570915
O      -1.333742   -0.325509   -2.662091
C       2.193585    0.095586   -1.348055
O       2.995609   -0.333245   -0.256323
H       0.610889    2.138885    0.005858
H      -0.997307    1.856529   -0.661527
H      -0.728402    1.730257    1.074086
H       0.681698   -0.266064    0.821796
H      -0.887428   -0.556761    0.100066
H       1.042975   -2.349809   -0.315166
H      -0.306610   -2.312938   -1.430869
H       1.309760   -2.411634   -3.388495
H       2.659873   -2.514375   -2.257983
H       1.449696   -3.792624   -2.304488
H       0.115658    1.173085   -2.622178
H       0.504303   -0.316548   -3.473185
H      -1.821893    0.111427   -1.957514
H       2.667195   -0.159047   -2.308138
H       2.183327    1.188511   -1.286265
H       3.142153   -1.279688   -0.348014
