18

C       0.042059    1.565868   -0.418323
C      -0.027413    0.095992   -0.063668
C       1.145079   -0.762698   -0.286228
O       0.816807   -0.301553    1.028261
C      -1.416553   -0.500148   -0.051730
C      -1.629367   -1.915076    0.529132
O      -2.633532   -1.434597    1.446027
C      -2.370989   -0.064675    1.088928
H       1.070966    1.928100   -0.358073
H      -0.332488    1.739389   -1.432880
H      -0.568015    2.160084    0.270602
H       1.017250   -1.832153   -0.450068
H       2.050331   -0.337089   -0.717367
H      -1.869185   -0.376198   -1.039822
H      -2.026995   -2.672969   -0.155218
H      -0.757367   -2.315118    1.059990
H      -1.876416    0.482077    1.902955
H      -3.283379    0.467879    0.797240
