21

C      -0.091134    1.574577   -0.029180
C      -0.019829    0.045115    0.019700
C      -1.448150   -0.499784    0.130328
C       0.914818   -0.695488   -1.029295
C       2.218717    0.083106   -0.842527
O       2.261755    0.148777    0.613706
C       1.060699   -0.558020    0.977353
C       1.188170   -1.800945    0.040867
O       0.241573   -2.840268    0.077660
H       0.874224    2.046406    0.155631
H      -0.469259    1.914296   -1.000741
H      -0.788194    1.940556    0.732506
H      -2.053636   -0.102976   -0.693374
H      -1.502599   -1.584369    0.103528
H      -1.908885   -0.148960    1.061717
H       0.594489   -0.934035   -2.043557
H       3.101927   -0.446825   -1.216182
H       2.206616    1.092045   -1.266517
H       0.971551   -0.599562    2.063874
H       2.207628   -2.209406    0.027026
H       0.408945   -3.361660    0.869446
