14

O       0.218105    1.142904   -0.611270
C      -0.054743    0.081431    0.274341
C      -1.427299   -0.496647    0.088497
C      -2.184345   -0.718442   -1.034365
C      -3.370577   -1.317184   -0.506261
N      -3.328294   -1.444089    0.792019
O      -2.087801   -0.916899    1.170808
C      -1.849478   -0.434404   -2.376344
C      -1.559933   -0.202921   -3.523101
H       0.120757    0.819273   -1.514921
H       0.687498   -0.729574    0.188206
H       0.023073    0.478750    1.290630
H      -4.243363   -1.652524   -1.047733
H      -1.317268    0.003787   -4.536378
