18

C       0.019178    1.574670   -0.141185
C       0.006581    0.069741    0.001968
O      -1.177529   -0.530764   -0.464247
C       1.279334   -0.734486   -0.138974
C       0.569837   -0.635846    1.202719
C       1.199283    0.082631    2.381855
C       2.131169   -0.833902    3.149154
O       3.270801   -0.574023    3.435245
H       0.940430    2.017515    0.245001
H      -0.059021    1.855182   -1.198770
H      -0.830507    2.018384    0.387533
H      -1.213931   -0.405731   -1.419508
H       1.220530   -1.677650   -0.670333
H       2.216188   -0.198481   -0.257486
H      -0.003336   -1.519017    1.472757
H       1.767917    0.966362    2.082091
H       0.412192    0.408376    3.078794
H       1.674290   -1.808222    3.443422
