19

C      -0.058106    1.554209   -0.103995
C       1.485390    1.548800    0.056783
C       1.400231    0.091522    0.614779
C      -0.037851    0.006999    0.007225
C       2.440904   -0.923110    0.213791
C       2.975353   -1.563868    1.257868
C       2.400117   -1.027847    2.528212
O       2.674196    0.382904    2.728252
C       1.428269    0.006007    2.140269
H      -0.558104    2.022724    0.748153
H      -0.467528    1.984661   -1.020300
H       1.997564    1.575168   -0.909464
H       1.946264    2.286752    0.716748
H      -0.801868   -0.478049    0.621953
H      -0.025892   -0.477863   -0.973053
H       2.725235   -1.062543   -0.824462
H       3.740279   -2.329452    1.219455
H       2.338097   -1.615210    3.439162
H       0.542048    0.249040    2.722794
