23

C      -0.189091    1.423485    0.142903
C       0.037814   -0.087236   -0.021939
C       0.763446   -0.441160   -1.333412
C      -0.034622   -0.102991   -2.610569
C       0.644949   -0.530306   -3.827668
C       1.226753   -0.891286   -4.815831
C       0.802947   -0.644124    1.167343
C       0.086279   -0.990024    2.447223
C       0.649668   -2.087007    1.574818
H       0.765602    1.962899    0.135705
H      -0.812193    1.838961   -0.654730
H      -0.683812    1.637031    1.095246
H      -0.946114   -0.580898   -0.038967
H       1.730259    0.076621   -1.370959
H       0.987694   -1.513121   -1.338743
H      -1.022732   -0.580294   -2.558574
H      -0.222387    0.975931   -2.665933
H       1.731131   -1.205975   -5.695241
H       1.800126   -0.223381    1.283546
H       0.574843   -0.778708    3.392040
H      -0.992249   -0.868973    2.470128
H      -0.053520   -2.697390    1.016850
H       1.523781   -2.626256    1.922677
