17

C       0.128202    1.576741   -0.120548
C       0.091903    0.124022   -0.054878
C       0.057794   -1.078685   -0.013135
C       0.011848   -2.534087    0.063978
C       0.154942   -3.143052    1.502900
C      -1.268678   -3.676055    1.276674
O      -1.353424   -3.051626   -0.022607
C       0.881010   -3.143587   -0.941930
C       1.599636   -3.670122   -1.748239
H       0.743181    1.920555   -0.959175
H      -0.878497    1.987293   -0.254902
H       0.542673    2.006784    0.797753
H       0.942265   -3.889874    1.595394
H       0.257865   -2.388221    2.281324
H      -1.358004   -4.766314    1.208257
H      -2.036882   -3.295635    1.958905
H       2.229939   -4.124624   -2.472263
