17

C       0.036086    1.392417   -0.360756
C      -0.005394   -0.098697   -0.015950
N       0.732992   -0.515636    1.175052
C       2.184097   -0.501882    1.074957
C       2.804071   -1.317063    2.200907
O       3.870382   -1.079096    2.702539
C      -1.435825   -0.619369    0.122925
O      -2.419422   -0.026953   -0.235083
H       1.057809    1.719671   -0.570767
H      -0.586361    1.598839   -1.234536
H      -0.356260    1.988938    0.469551
H       0.415738   -0.677560   -0.854824
H       0.436277    0.040847    1.971284
H       2.465289   -1.008922    0.139565
H       2.659852    0.490069    1.057228
H       2.174645   -2.178332    2.519418
H      -1.488575   -1.623728    0.598337
