16

O       0.013408    0.000931    0.014127
C      -0.024540    1.196848    0.008711
C      -1.195140    2.186127    0.052264
C      -0.788793    3.018277    1.280899
C      -0.311564    4.141829    0.449175
C      -0.668308    3.394351   -0.851064
C       0.716620    2.939889   -1.355334
C       1.103174    2.250983   -0.028204
N       0.684366    3.220390    1.043600
H      -2.207397    1.812750   -0.063400
H      -1.158453    2.959684    2.297217
H      -0.236716    5.205618    0.640429
H      -1.369700    3.836026   -1.554730
H       0.683347    2.237838   -2.195491
H       1.365728    3.781609   -1.613065
H       2.120502    1.895326    0.109218
