18

C      -0.096129    1.583282   -0.131186
C      -0.067468    0.058657   -0.022169
O      -1.373604   -0.483649   -0.112336
C       0.945852   -0.567787   -1.081638
N       2.298985   -0.532188   -0.451199
C       2.007830   -0.532496    0.777124
O       2.632830   -0.148445    1.930798
C       1.299704    0.250510    2.459320
C       0.606980   -0.468773    1.263657
H       0.909022    2.008559   -0.056179
H      -0.503787    1.882518   -1.104177
H      -0.726894    2.014952    0.651218
H      -1.790869   -0.132823   -0.906296
H       0.633552   -1.591881   -1.321064
H       0.970541    0.006690   -2.013326
H       1.131828   -0.181325    3.446560
H       1.229883    1.339765    2.485568
H       0.160128   -1.421691    1.553982
