13

C       0.100135    1.420588    0.015811
C       0.065753   -0.030068   -0.006311
C       0.039896   -1.234532   -0.023255
C      -0.063060   -2.665074   -0.046450
O      -1.089617   -3.290922   -0.092659
O       1.189280   -3.228562   -0.008133
C       1.274085   -4.600276   -0.023822
N       2.420814   -5.114961    0.011285
H       1.120823    1.795656   -0.108481
H      -0.519704    1.835973   -0.785702
H      -0.288519    1.798932    0.967431
H       0.300320   -5.087591   -0.066313
H       2.341759   -6.130921   -0.005560
