20

C       1.094605    1.026620    0.863553
C       0.448587   -0.296326    0.419574
C       0.864495   -0.715635   -0.981799
C       1.656080   -1.998014   -0.915880
C       1.761707   -2.439893    0.530804
C       0.905049   -1.450311    1.335385
O       0.642003   -1.545047    2.505902
N       0.354132   -1.947885   -1.565902
C      -0.810444   -2.640429   -1.035219
H       2.184964    0.988942    0.766822
H       0.732040    1.857977    0.251741
H       0.851247    1.230543    1.909158
H      -0.639257   -0.200524    0.520838
H       1.096699    0.071499   -1.695614
H       2.495079   -2.196709   -1.577240
H       1.434146   -3.466172    0.725651
H       2.798497   -2.371039    0.882505
H      -0.907449   -2.663018    0.060088
H      -1.710999   -2.167346   -1.438946
H      -0.790012   -3.676106   -1.388500
