23

C      -0.187713    1.545544    0.017568
C       0.057343    0.038092    0.016352
C       0.859689   -0.474410   -1.206669
C       1.633624   -1.733311   -0.724323
C       1.278180   -1.903205    0.774538
C       2.400908   -2.519921    1.628648
C       2.750888   -3.879793    1.232471
C       3.018587   -5.001450    0.892194
C       0.863331   -0.490517    1.214425
H       0.761217    2.094992    0.022245
H      -0.747078    1.858306   -0.870816
H      -0.759867    1.859913    0.897193
H      -0.916837   -0.470733    0.025719
H       0.206922   -0.683107   -2.059294
H       1.561174    0.300904   -1.535739
H       1.387050   -2.629293   -1.298622
H       2.713644   -1.584449   -0.834838
H       0.400339   -2.556858    0.855739
H       3.292356   -1.880510    1.564381
H       2.100285   -2.518417    2.684728
H       3.264242   -5.991389    0.597868
H       1.757545    0.132965    1.364286
H       0.298552   -0.480098    2.152684
