21

C       0.241860    1.038357    1.314766
C       0.196287   -0.343586    0.856941
C       0.166453   -1.488924    0.484352
C       0.098295   -2.873181    0.015482
C      -1.364002   -3.352134    0.013375
O      -1.363579   -4.742876   -0.266479
C       0.748251   -3.059702   -1.371666
C       2.246707   -2.792976   -1.373150
O       2.722563   -3.015807   -2.693618
H       1.040001    1.188905    2.050253
H       0.423404    1.728735    0.483566
H      -0.701861    1.332318    1.787583
H       0.629668   -3.516739    0.731975
H      -1.812313   -3.140348    0.994886
H      -1.928438   -2.785103   -0.742570
H      -2.274681   -5.031185   -0.369415
H       0.565076   -4.085331   -1.702567
H       0.268752   -2.388409   -2.093424
H       2.442349   -1.760847   -1.046052
H       2.742993   -3.465420   -0.653201
H       3.661623   -2.810519   -2.710493
