15

C      -0.011521    1.533784    0.129124
C      -0.004015    0.050502   -0.007601
N      -0.066488   -0.535567   -1.174680
O      -0.032819   -1.917897   -0.848673
C       0.045613   -1.966352    0.475713
N       0.097333   -3.159044    1.142130
C       0.081841   -4.455572    0.644690
N       0.012354   -4.731940   -0.588592
N       0.068154   -0.802738    1.068872
H       0.898522    1.872189    0.633438
H      -0.074514    2.003464   -0.853369
H      -0.862710    1.853673    0.737540
H       0.154838   -3.043332    2.141586
H       0.137883   -5.175380    1.469288
H       0.015046   -5.740424   -0.724626
