17

O      -0.173698    1.429799   -0.063104
C      -0.006373    0.023673   -0.153850
C      -1.379143   -0.597854    0.068964
C      -1.346525   -2.113178   -0.037926
O      -0.421333   -2.731194   -0.530924
N      -2.456277   -2.744112    0.471776
C      -2.626028   -4.176138    0.343361
C      -3.789520   -4.535603   -0.478192
N      -4.722367   -4.806812   -1.103228
H       0.675283    1.843537   -0.243055
H       0.377072   -0.285280   -1.134713
H       0.697970   -0.352066    0.602949
H      -1.772978   -0.290384    1.044495
H      -2.076204   -0.207298   -0.683362
H      -3.224280   -2.194488    0.821917
H      -1.710685   -4.552453   -0.124237
H      -2.728063   -4.658587    1.322755
