18

C      -0.420361    1.420624    0.044512
C       0.017243   -0.038444   -0.011298
C       1.308421   -0.334191   -0.891595
C       2.122550   -0.483416    0.414618
O       2.601474    0.726117    1.100080
C       1.941427   -0.035634    2.147782
C       2.395449   -1.454777    1.611052
N       0.994588   -1.994578    1.658520
C       0.813245   -0.560746    1.225246
H       0.422665    2.064926    0.305303
H      -0.814745    1.741548   -0.925736
H      -1.206199    1.561459    0.793532
H      -0.833279   -0.682617   -0.254067
H       1.242385   -1.256557   -1.473214
H       1.651415    0.471594   -1.544468
H       1.955739    0.363054    3.166020
H       3.272398   -2.049240    1.886770
H       0.853440   -2.619895    0.859174
