12

C      -0.066879    1.545214   -0.052675
C      -0.031796    0.039714    0.058962
O       1.223740   -0.605757   -0.163025
C       0.686649   -0.672533    1.155247
C       1.373032    0.074034    2.186722
N       1.906028    0.660835    3.027255
C      -1.172944   -0.658581   -0.515918
N      -2.093591   -1.188156   -0.970146
H       0.801323    1.980042    0.445250
H      -0.057569    1.836757   -1.106188
H      -0.978376    1.937373    0.406535
H       0.331044   -1.653458    1.463679
