23

C      -0.276969    1.469012    0.086035
C       0.073153   -0.021845    0.065722
C       0.971726   -0.487889    1.234300
C       2.337437    0.214944    1.235381
O       0.306444   -0.185383    2.481780
C       0.014033   -1.375469    3.197801
C       0.563345   -2.505231    2.363214
C       0.464042   -3.932707    2.793166
C       1.102840   -1.991903    1.261724
H       0.599658    2.099974   -0.089504
H      -1.009774    1.702944   -0.692434
H      -0.705020    1.743932    1.053644
H      -0.849108   -0.612541    0.108693
H       0.566693   -0.282707   -0.879635
H       2.217620    1.292693    1.371427
H       2.954356   -0.166126    2.053432
H       2.867482    0.042649    0.292375
H       0.476076   -1.337489    4.198345
H      -1.073505   -1.471880    3.355460
H       0.966011   -4.093255    3.755764
H      -0.582208   -4.232657    2.933642
H       0.914261   -4.605824    2.059275
H       1.578324   -2.547142    0.461604
