19

C      -0.053283    1.505607    0.026397
C       0.036458   -0.001192   -0.047839
C       0.639280   -0.725219   -1.221501
C       0.002726   -1.974176   -1.772134
O       1.271832    0.017329   -2.210085
C       1.379716   -0.734811    0.140626
N       2.576172    0.077061    0.149765
C       1.393712   -1.928768    0.946531
N       1.431338   -2.889221    1.593251
H       0.731832    1.990153   -0.555514
H      -1.015235    1.835242   -0.378818
H       0.009303    1.861575    1.060183
H      -0.788138   -0.523928    0.429165
H      -0.776888   -1.705253   -2.491786
H       0.748987   -2.583290   -2.290372
H      -0.448776   -2.574294   -0.978957
H       2.010900    0.471412   -1.770515
H       2.659145    0.614792    1.006737
H       3.403784   -0.505491    0.070680
