19

C       0.004697    1.561811   -0.060775
C      -0.027044    0.043159    0.126221
C      -1.438280   -0.542837    0.017183
O      -1.983014   -0.284403   -1.286371
C      -2.338522   -1.463132   -1.886843
O      -2.815439   -1.516666   -2.986462
C      -2.027027   -2.577007   -0.947302
C      -2.301122   -3.994109   -1.321395
C      -1.511063   -2.036846    0.157710
H       1.027753    1.941439    0.013053
H      -0.394083    1.839023   -1.039852
H      -0.596104    2.067170    0.703409
H       0.607054   -0.449021   -0.620191
H       0.372465   -0.227756    1.111663
H      -2.093382   -0.044823    0.747532
H      -3.365518   -4.133971   -1.538498
H      -1.762683   -4.260057   -2.237243
H      -2.009483   -4.685466   -0.527589
H      -1.171088   -2.554603    1.046396
