22

C      -0.023763    1.573453    0.015289
C       0.026870    0.046890   -0.026243
C       0.555445   -0.492641   -1.368068
C       0.692720   -2.014253   -1.313717
O       1.129848   -2.572744   -2.545829
C       1.729917   -2.411019   -0.263074
C       1.553833   -1.666217    1.062022
C       2.186020   -0.326055    1.246534
N       0.735996   -0.451103    1.161038
H       0.976633    2.002972   -0.105057
H      -0.656551    1.961945   -0.788817
H      -0.426900    1.915124    0.972473
H      -1.000724   -0.329134    0.084599
H      -0.144653   -0.203907   -2.163303
H       1.525998   -0.050184   -1.626757
H      -0.285863   -2.439658   -1.030879
H       0.489362   -2.333136   -3.223420
H       1.678194   -3.489592   -0.091306
H       2.717848   -2.210327   -0.693136
H       1.461394   -2.306924    1.936337
H       2.570845   -0.012153    2.213964
H       2.739362    0.069833    0.395973
