19

O      -0.020034    0.010311    0.664428
C      -0.037595    1.117415    0.201038
C      -1.327364    1.918740    0.061537
C      -1.966572    1.833523   -1.342416
C      -1.266978    2.582025   -2.489740
C       0.130017    2.070937   -2.882266
O       1.234426    2.748967   -2.283858
C       1.214914    2.901417   -0.907231
O       1.143371    1.659863   -0.213962
H      -2.009009    1.459096    0.779685
H      -1.198670    2.964122    0.358338
H      -2.057580    0.773954   -1.611915
H      -2.990040    2.214806   -1.256568
H      -1.906848    2.484006   -3.374247
H      -1.211920    3.658334   -2.283022
H       0.206941    0.991883   -2.685664
H       0.291487    2.216840   -3.953039
H       2.179015    3.336794   -0.637683
H       0.408378    3.565695   -0.575848
