20

C      -0.085104    1.510919    0.005733
C       0.005671    0.024763   -0.038333
C      -0.031160   -0.844474   -1.054865
C       0.073364   -2.185704   -0.369287
N      -0.843949   -2.074810    0.887193
C       0.161719   -2.974916    1.605690
C       1.110132   -2.072081    0.804838
C       2.614833   -2.057332    0.731971
C       0.133969   -0.895802    1.163257
H       0.795833    1.953296    0.488176
H      -0.170559    1.935919   -0.998046
H      -0.955659    1.837425    0.588518
H      -0.141553   -0.662542   -2.114815
H      -0.026300   -3.111769   -0.938508
H       0.143783   -2.867701    2.694982
H       0.087707   -4.028975    1.318980
H       3.001474   -3.017186    0.372328
H       2.957614   -1.274819    0.045912
H       3.057118   -1.866136    1.715865
H       0.098359   -0.485411    2.175205
