15

N      -0.062715    1.385274   -0.257193
C       0.022016    0.022062   -0.056911
N      -1.014576   -0.774415   -0.022354
O      -0.494996   -2.045505    0.103862
N       0.865499   -2.016809    0.158749
C       1.216952   -0.764153    0.064060
C       2.621163   -0.314007    0.082089
C       3.477355   -0.610416    1.274085
N       3.704991   -1.300319    0.004048
H       0.592900    1.930520    0.284328
H      -1.005256    1.742143   -0.175004
H       2.804173    0.600192   -0.478080
H       4.252340    0.093821    1.563905
H       3.011141   -1.154090    2.090984
H       3.300599   -2.234239    0.036687
