22

C      -0.087737    1.565252   -0.052676
C      -0.015348    0.034926   -0.069753
C       0.784191   -0.553116   -1.249743
C       2.265245   -0.152153   -1.208483
C       0.628521   -2.077411   -1.265991
C      -0.796394   -2.611749   -1.587719
N      -0.637487   -3.472555   -2.773160
C       0.589037   -3.403810   -3.078443
O       1.436172   -2.654557   -2.336858
H       0.897781    2.021537    0.077050
H      -0.513463    1.951092   -0.985688
H      -0.720708    1.913521    0.769244
H       0.428266   -0.321773    0.870322
H      -1.037734   -0.361566   -0.090861
H       0.345999   -0.176021   -2.185890
H       2.813657   -0.612768   -2.032662
H       2.387767    0.931529   -1.283250
H       2.730575   -0.477498   -0.269899
H       1.019068   -2.494655   -0.329673
H      -1.227407   -3.187296   -0.763190
H      -1.498258   -1.801808   -1.820018
H       1.057102   -3.908653   -3.916762
