15

N       0.237809   -1.178541    0.174154
C       0.080829   -0.036157    0.104541
C      -0.134328    1.422865    0.033995
C      -0.771186    1.974285    1.325106
C       0.469278    2.287607    2.171069
C       1.459363    2.781542    1.097584
O       1.125543    2.085674   -0.106883
C       1.349380    4.236766    0.873368
N       1.253059    5.376920    0.714300
H      -0.735430    1.639207   -0.854227
H      -1.322458    2.888576    1.089538
H      -1.452432    1.264465    1.794805
H       0.290493    3.027824    2.951253
H       0.865559    1.378787    2.631864
H       2.498683    2.550019    1.349064
