25

C       0.039570    1.598780   -0.021620
C       0.029719    0.067587   -0.037471
C       0.762997   -0.492566   -1.266716
C       1.001840   -1.975996   -1.165061
C       0.898403   -2.664047   -0.029399
C       0.558572   -2.062935    1.318852
C      -0.856712   -2.517025    1.741775
C       1.568446   -2.575820    2.365775
C       0.643241   -0.520245    1.241990
H       1.062404    1.983738    0.069345
H      -0.388522    2.009523   -0.942698
H      -0.539457    1.992098    0.820761
H      -1.015944   -0.263294   -0.099762
H       0.193355   -0.268804   -2.178339
H       1.726115    0.027659   -1.392888
H       1.273645   -2.494536   -2.082143
H       1.069471   -3.739923   -0.036654
H      -0.929506   -3.609992    1.747875
H      -1.092776   -2.160438    2.751195
H      -1.623093   -2.140861    1.058117
H       2.594418   -2.318293    2.083850
H       1.365765   -2.136245    3.349048
H       1.511214   -3.665257    2.469158
H       1.699736   -0.220697    1.285985
H       0.162028   -0.084527    2.127018
