19

C      -0.203440    1.520768   -0.008863
C       0.045180   -0.007041   -0.022138
C       0.771953   -0.443717   -1.269165
C       1.960964   -1.040976   -1.278828
C       2.741482   -1.369060   -0.033404
C       2.293604   -0.546456    1.174328
O       2.826771    0.771906    1.012484
C       0.766043   -0.437417    1.254176
O       0.174371   -0.630833    2.291863
H       0.745877    2.060300   -0.031003
H      -0.789735    1.814097   -0.885287
H      -0.759839    1.807667    0.888070
H      -0.937411   -0.495497    0.019741
H       0.261855   -0.237829   -2.207935
H       2.409240   -1.330849   -2.225517
H       2.644566   -2.438055    0.202310
H       3.811494   -1.185515   -0.186109
H       2.648971   -0.999421    2.108346
H       2.634875    1.264474    1.818008
