18

C      -0.015957    1.384508    0.030982
O      -0.054047   -0.020601   -0.029710
C       0.685645   -0.542546   -1.110245
C       0.542951   -2.065567   -1.090570
C       1.281802   -2.716135   -2.215236
C       2.410449   -3.503088   -2.200605
N       2.629917   -3.790173   -3.505642
N       1.702976   -3.222809   -4.297566
N       0.888637   -2.573162   -3.518490
H       1.011184    1.761302    0.162966
H      -0.433665    1.844883   -0.878325
H      -0.616869    1.692223    0.890350
H       0.316611   -0.147004   -2.069737
H       1.749117   -0.258339   -1.027423
H       0.906394   -2.445315   -0.130774
H      -0.522474   -2.310298   -1.153928
H       3.041210   -3.867877   -1.407651
H       3.356494   -4.351494   -3.920128
