14

O      -0.053869   -0.124711   -0.188954
C       0.002425    1.055883    0.046136
C       1.259990    1.870308    0.033239
C       1.197487    3.259891   -0.665574
C       0.523168    3.951671    0.562902
O       1.501077    5.028574    0.642894
C       2.278000    3.850395    0.291621
C       1.464063    2.879189    1.200841
H      -0.919926    1.632296    0.297712
H       2.118128    1.241739   -0.217700
H       1.049824    3.493602   -1.719208
H      -0.521117    4.186464    0.759945
H       3.354770    3.941067    0.156304
H       1.618329    2.681939    2.260969
