13

C      -0.083051    1.373279   -0.225608
C       1.304432    0.887393    0.018047
N       0.179283   -0.038832    0.083593
C      -0.200820   -0.549304    1.315196
N       0.626432   -0.798413    2.300024
O      -0.138911   -1.376337    3.283384
N      -1.447348   -1.473824    2.905928
C      -1.506974   -0.977191    1.704902
H      -0.544407    1.979767    0.549410
H      -0.430576    1.563236   -1.235909
H       1.977409    0.727471   -0.817899
H       1.779452    1.159048    0.955673
H      -2.434068   -0.935334    1.155325
