16

C      -0.011257    1.526545   -0.002953
C      -0.013460    0.025425    0.016051
C      -0.897490   -0.835454    0.881898
O      -1.804164   -1.811510    0.501397
C       0.599434   -0.967264    1.057001
C       1.294359   -1.699483   -0.118222
O       0.304505   -2.180495   -1.059514
C       0.710430   -0.794412   -1.097626
H       0.991367    1.930689   -0.189228
H      -0.675491    1.912343   -0.786320
H      -0.358044    1.929724    0.953580
H      -1.328853   -0.248298    1.691772
H      -1.369401   -2.308181   -0.205104
H       1.111901   -0.741052    1.984684
H       2.241647   -2.223431   -0.095960
H       1.076195   -0.413359   -2.043928
