22

C      -0.215773    1.341269    0.130670
O       0.294626    0.055683   -0.150754
C       0.797574   -0.596275    0.974778
C      -0.156675   -1.373616    1.942870
C      -1.012394   -2.197604    0.948243
C       0.140338   -2.713947    0.032260
C       1.326691   -2.032840    0.761690
N       1.053148   -2.198885    2.220095
C       0.923627   -3.523525    2.799456
H       0.553432    1.992793    0.572676
H      -0.545584    1.774843   -0.816280
H      -1.071639    1.302262    0.820588
H       1.508582    0.024172    1.531095
H      -0.651691   -0.909436    2.797804
H      -1.567397   -2.998982    1.442257
H      -1.725758   -1.570834    0.408631
H       0.231933   -3.802761    0.022542
H       0.047436   -2.365550   -0.997734
H       2.339568   -2.236056    0.410322
H       1.906702   -4.006396    2.804467
H       0.598430   -3.424192    3.840566
H       0.218831   -4.199502    2.289867
