18

C      -0.030076    1.389745    0.453272
N       0.018704    0.082734   -0.182920
C      -1.223948   -0.674173   -0.246708
C      -1.150631   -1.712448   -1.362979
C       0.096407   -2.564763   -1.241780
O       0.200880   -3.697952   -1.655808
N       1.148378   -1.925009   -0.612155
C       1.210758   -0.606131   -0.119754
N       2.274672   -0.065518    0.341159
H       0.897155    1.921473    0.245353
H      -0.877353    1.948419    0.045854
H      -0.142991    1.319806    1.544752
H      -1.449797   -1.165123    0.714866
H      -2.035974    0.030974   -0.442833
H      -2.017550   -2.375867   -1.361712
H      -1.114808   -1.209993   -2.337102
H       1.997589   -2.468679   -0.550257
H       3.080328   -0.677679    0.237017
