17

N       0.347736    1.540423   -0.305840
C       0.049417    0.134422   -0.056063
C       0.419748   -0.855480   -1.208772
C      -0.246497   -0.489882   -2.450471
C      -0.829711   -0.142383   -3.446806
C      -1.479556    0.264583   -4.694059
O      -0.786213    1.293852   -5.383664
C       0.717904   -0.300083    1.179746
N       1.264084   -0.673785    2.126473
H       1.346848    1.666818   -0.443348
H      -0.108862    1.815701   -1.171498
H      -1.031375    0.053711    0.111559
H       1.508693   -0.847649   -1.342059
H       0.148716   -1.876351   -0.913241
H      -1.626414   -0.621888   -5.331083
H      -2.476023    0.667827   -4.483094
H       0.110842    0.982580   -5.544103
