19

O      -0.094988    1.436715    0.081191
C       0.028632    0.024440    0.017397
C       0.744257   -0.531325    1.258485
O       0.790582   -1.946879    1.242715
C      -0.507033   -2.521024    1.272756
C      -1.328015   -2.067300    0.078329
C      -1.496173   -2.955641   -1.079220
O      -2.549825   -2.777747   -0.123126
C      -1.383278   -0.559697   -0.063126
H       0.785137    1.820592    0.012902
H       0.597250   -0.282930   -0.874524
H       1.783954   -0.188856    1.295677
H       0.226958   -0.159556    2.159095
H      -0.377903   -3.605759    1.271171
H      -1.031834   -2.236683    2.200884
H      -1.687503   -2.529770   -2.063283
H      -1.028794   -3.939424   -1.081804
H      -1.972576   -0.140959    0.763287
H      -1.873505   -0.267368   -0.995605
