16

O       0.060747    0.041601    0.306232
C      -0.037915    1.207516    0.064911
C      -1.123844    2.243650   -0.076207
C      -1.145687    3.136140    1.226186
C       0.259434    3.472106    1.728810
C       1.438355    2.622145    1.251312
N       1.002318    2.209680   -0.100853
C      -0.025990    3.225487   -0.576042
C      -0.313005    4.222292    0.568650
H      -2.095368    2.072632   -0.538159
H      -2.004597    3.223044    1.878435
H       0.301271    3.964341    2.694585
H       2.359012    3.215291    1.213361
H       1.626414    1.726785    1.849552
H       0.094612    3.543792   -1.607661
H      -0.455885    5.291229    0.494919
