29

C       0.130129    1.583332    0.114123
C       0.051272    0.066338   -0.077739
C      -1.377681   -0.481137    0.017942
C      -1.452486   -2.003465   -0.157890
C      -2.870819   -2.604943   -0.042293
C      -3.702844   -2.237471   -1.282542
C      -2.823164   -4.138661    0.205022
C      -2.243347   -4.481936    1.587572
C      -4.197494   -4.813669    0.064524
H       1.161167    1.943865    0.042117
H      -0.459992    2.109784   -0.644523
H      -0.257970    1.878605    1.095467
H       0.476917   -0.202357   -1.053781
H       0.680427   -0.431207    0.672438
H      -1.802668   -0.210308    0.994897
H      -2.000061    0.023765   -0.731810
H      -1.033304   -2.278460   -1.136860
H      -0.791154   -2.458394    0.587537
H      -3.358813   -2.153256    0.835948
H      -3.325920   -2.756991   -2.172397
H      -4.757195   -2.498646   -1.164667
H      -3.657701   -1.163941   -1.485925
H      -2.160197   -4.571752   -0.559669
H      -2.886141   -4.086746    2.383857
H      -2.183513   -5.566941    1.722590
H      -1.239122   -4.079550    1.742236
H      -4.928246   -4.363930    0.748323
H      -4.598416   -4.740347   -0.949155
H      -4.127522   -5.877580    0.314267
