14

O      -0.192504   -0.058802   -0.213410
C      -0.010359    1.127536   -0.134314
C       1.339991    1.804712   -0.165127
C       1.403180    2.891468   -1.243210
C       2.588406    3.831072   -1.065436
O       3.307304    3.813113   -0.091269
C       2.792056    4.774078   -2.151169
C       2.941539    5.545070   -3.063287
H      -0.869393    1.832815   -0.024025
H       1.508405    2.277510    0.811462
H       2.117699    1.050691   -0.305946
H       1.445291    2.462335   -2.251302
H       0.496982    3.515609   -1.232304
H       3.090251    6.233861   -3.859591
