19

C       0.158677    1.456391   -0.055456
O       1.105471    0.420306   -0.323026
C      -0.225793    0.043141    0.039972
C      -0.420080   -0.729679    1.332097
C      -0.114803   -2.219108    1.088090
O      -0.180568   -2.963146    2.289176
C       0.823993   -2.591340    3.213102
C       0.997169   -1.103316    3.331577
C       0.422711   -0.249687    2.488625
H       0.346389    2.040974    0.842528
H      -0.157966    2.036767   -0.921329
H      -0.804543   -0.358842   -0.795831
H      -1.485943   -0.639423    1.594697
H      -0.849140   -2.665205    0.410565
H       0.880937   -2.309579    0.624768
H       0.524390   -3.020501    4.176816
H       1.790278   -3.058062    2.945024
H       1.622853   -0.750912    4.147438
H       0.551810    0.819291    2.626930
