18

O      -0.063824    1.323379   -0.285095
C      -0.002582   -0.078714   -0.033216
C      -1.453543   -0.594848    0.031424
C      -2.183183   -0.063894    1.295990
O      -1.630953   -0.532110    2.507506
C      -2.252509   -0.119196   -1.229260
O      -1.478093   -0.071691   -2.403570
C      -1.398797   -2.060251    0.071263
N      -1.356457   -3.214920    0.084858
H       0.832449    1.672803   -0.279635
H       0.528013   -0.602889   -0.835684
H       0.506372   -0.299639    0.914527
H      -2.181992    1.031489    1.241148
H      -3.222902   -0.405845    1.272816
H      -0.892764    0.034184    2.748718
H      -3.074775   -0.814525   -1.415455
H      -2.687561    0.862728   -0.999003
H      -0.890296    0.687130   -2.304508
