20

C       0.034259    1.352472   -0.224924
O      -0.041098   -0.054232   -0.236770
C      -1.281657   -0.538538    0.227473
C      -1.245662   -2.042220    0.140227
C      -2.480435   -2.897079    0.118637
C      -3.886316   -2.342007    0.192280
C      -1.631448   -2.768386   -1.147676
C      -2.132899   -2.019464   -2.264024
N      -2.550206   -1.415815   -3.159263
H       1.024641    1.628067   -0.594285
H      -0.727776    1.806763   -0.876664
H      -0.093133    1.760146    0.790828
H      -1.448879   -0.230227    1.274601
H      -2.105906   -0.120510   -0.369822
H      -0.377512   -2.465859    0.636499
H      -2.366679   -3.861647    0.605972
H      -4.006542   -1.434940   -0.403787
H      -4.605356   -3.076932   -0.182874
H      -4.154833   -2.109164    1.227902
H      -1.025954   -3.622004   -1.431967
