16

O      -0.211945    1.367805    0.107901
C      -0.039400    0.023306    0.074981
C       0.209233   -0.752935   -1.016153
O       0.320034   -2.070905   -0.629054
C       0.136231   -2.097406    0.717861
C      -0.087804   -0.849961    1.208065
N       0.344350   -0.359090   -2.341941
C       1.308806   -1.050751   -3.209885
C      -0.154007   -1.233976   -3.413405
H      -0.124597    1.680410   -0.802367
H       0.193542   -3.069340    1.179182
H      -0.265150   -0.572529    2.234551
H       1.876799   -0.405455   -3.873451
H       1.859853   -1.879443   -2.775834
H      -0.583859   -2.185536   -3.115843
H      -0.661320   -0.723376   -4.226590
