18

C      -0.166465    1.554024    0.067957
C      -0.077128    0.027207    0.028956
C       0.842968   -0.541177    1.127005
C       0.928075   -2.027992    1.127415
C       1.932727   -2.914448    0.886154
C       1.370407   -4.226080    1.031731
C       0.065153   -4.038350    1.349701
O      -0.222398   -2.709192    1.412343
H       0.817851    2.014257   -0.074599
H      -0.827298    1.932946   -0.717641
H      -0.557847    1.904005    1.029787
H      -1.075206   -0.409710    0.145027
H       0.292067   -0.302989   -0.949410
H       1.856901   -0.144515    1.004583
H       0.486645   -0.191758    2.105942
H       2.952466   -2.664596    0.637170
H       1.873958   -5.173044    0.916171
H      -0.756324   -4.704271    1.556169
