20

C       0.138206    1.471119   -0.019187
C      -0.046183   -0.014015    0.007009
C      -0.020149   -0.845301    1.253306
C      -0.525993   -2.247448    0.958943
C       0.149095   -2.021843   -0.403634
N       1.097532   -0.962728    0.247899
C      -0.613253   -0.874925   -1.116839
C      -2.114357   -0.956232   -1.359794
O       0.060488   -0.482120   -2.307024
H       0.829730    1.785606    0.768206
H       0.549774    1.780546   -0.983597
H      -0.813790    1.991391    0.135933
H       0.151055   -0.391667    2.224021
H       0.025853   -2.980882    1.553449
H      -1.595755   -2.475023    0.998781
H       0.576901   -2.836927   -0.986841
H      -2.674545   -1.152215   -0.442556
H      -2.469011   -0.012717   -1.785411
H      -2.349920   -1.755463   -2.074274
H      -0.144073   -1.130597   -2.989045
