16

N      -0.007818   -1.133149   -0.246777
C      -0.037562    0.004206   -0.044180
C      -0.040052    1.445499    0.201146
C       1.360455    2.060274    0.048088
C       2.036566    2.143890   -1.348083
N       2.284686    3.624618   -1.202587
C       0.948927    4.233274   -1.112281
C       1.491409    3.580662    0.096910
H      -0.746570    1.913831   -0.492424
H      -0.421635    1.628345    1.212737
H       2.034274    1.588595    0.766713
H       2.980332    1.602163   -1.416857
H       1.414628    1.888916   -2.213074
H       0.974031    5.318272   -1.138331
H       0.125925    3.789710   -1.669837
H       1.798933    4.148905    0.969125
