16

C      -0.081160    1.495977    0.038128
C       0.031000    0.003774   -0.027382
C       0.943982   -0.836015   -0.925470
C       0.099314   -2.046084   -0.434323
O       0.444486   -2.155081    0.975197
C      -0.283050   -0.936393    1.153852
C      -1.080452   -1.045479   -0.100313
C       0.028261   -3.297003   -1.146377
N      -0.044913   -4.279460   -1.750409
H       0.850233    1.943316    0.402531
H      -0.298145    1.924751   -0.946195
H      -0.884060    1.802298    0.717224
H       0.768772   -0.625070   -1.982867
H       2.014340   -0.891705   -0.706682
H      -0.535409   -0.620239    2.156689
H      -2.133337   -1.024674   -0.343824
