17

C      -0.124690    1.431873    0.011726
C      -0.083648   -0.022565    0.002874
C      -0.050787   -1.225141   -0.004407
C       0.031523   -2.674012   -0.013723
O      -1.307473   -3.222005   -0.003456
C      -1.364881   -4.570680   -0.009829
O      -0.407204   -5.293827   -0.022969
C      -2.822105   -5.004456    0.002235
O      -2.875098   -6.407145   -0.005208
H       0.887168    1.851553    0.006245
H      -0.650045    1.820931   -0.867089
H      -0.636111    1.810507    0.903222
H       0.557292   -3.043038   -0.901145
H       0.575040   -3.053382    0.858508
H      -3.291817   -4.558962    0.893270
H      -3.309458   -4.548977   -0.874195
H      -3.800644   -6.667220    0.006724
