17

C      -0.010803    1.476300    0.042790
O       1.361844    1.570722   -0.426974
C       1.421048    0.150520   -0.618441
C       0.019656   -0.065046    0.055637
C      -0.466731   -0.817070   -1.234507
O      -1.578347   -0.445482   -2.023692
C      -1.067759   -0.089678   -3.326085
C       0.408314    0.218809   -3.111028
C       0.747412   -0.279796   -1.927745
H      -0.118080    1.950223    1.022741
H      -0.725410    1.916591   -0.661480
H       2.366086   -0.293251   -0.302099
H      -0.120439   -0.560281    1.015513
H      -0.477353   -1.899266   -1.032238
H      -1.245908   -0.912655   -4.037096
H      -1.617389    0.786976   -3.690291
H       0.977932    0.864978   -3.766469
