16

C      -0.000550    1.555800    0.135112
C       0.020083    0.063004    0.032154
C       0.011530   -0.699894   -1.105482
O       0.037886   -2.036247   -0.781558
C       0.062472   -2.113472    0.568694
C       0.053446   -0.871952    1.119496
C      -0.019229   -0.344405   -2.535484
N      -0.015483   -1.407801   -3.390061
O      -0.045382    0.815222   -2.920060
H       0.887977    1.920740    0.662948
H      -0.031303    2.002915   -0.857771
H      -0.872991    1.893425    0.706086
H       0.084585   -3.108804    0.982194
H       0.068414   -0.637446    2.172867
H       0.001256   -2.354946   -3.056309
H      -0.040180   -1.220400   -4.377525
