23

O       0.138077    1.386803   -0.289964
C       0.068824   -0.008565   -0.004469
C       0.836745   -0.384069    1.278967
C       0.018315   -0.151822    2.565134
C      -1.429201   -0.665394    2.421472
C      -1.481994   -2.130064    1.915018
C      -1.458619   -2.025894    0.356422
C      -1.391487   -0.508761    0.048454
C      -2.110176    0.095957    1.269835
H      -0.242917    1.866315    0.452105
H       0.567704   -0.475925   -0.861337
H       1.114800   -1.442406    1.219145
H       1.774492    0.180020    1.302615
H       0.517429   -0.641815    3.409204
H      -0.010693    0.918925    2.810696
H      -1.955293   -0.547228    3.373598
H      -0.656471   -2.730858    2.308408
H      -2.406304   -2.609228    2.250995
H      -0.620997   -2.572460   -0.088475
H      -2.371590   -2.452376   -0.069537
H      -1.876054   -0.253789   -0.897884
H      -3.183185   -0.124144    1.228947
H      -2.014557    1.184893    1.352093
