18

C      -0.066833    1.553618   -0.042615
C       1.449994    1.216569   -0.005937
C       1.232928    0.283993    1.226763
C       1.715319   -1.149192    0.954577
C       0.651599   -1.998660    1.045080
C      -0.652262   -1.207989    0.827287
C       0.047683    0.060564    0.298416
N       1.210856    0.003253   -0.866649
C       2.285173   -0.999210   -0.435273
H      -0.446651    2.189243    0.759920
H      -0.468773    1.826932   -1.020251
H       2.279803    1.892358   -0.223246
H       1.088242    0.639973    2.248117
H       0.709324   -3.023005    0.689499
H      -1.284074   -1.753687    0.118581
H      -1.279595   -0.947684    1.691356
H       3.266434   -0.524039   -0.539859
H       2.232826   -1.899845   -1.047029
