18

O       0.091839    1.283633   -0.324405
C       0.020751   -0.079702    0.059294
C      -1.443908   -0.476038    0.076590
C      -2.108125   -0.497329   -1.349660
C      -2.305952   -2.012321   -1.209660
C      -1.673261   -1.995064    0.161473
N      -3.102110   -2.229561   -0.014585
C      -3.730925   -3.427144    0.272352
O      -4.334807   -4.105289   -0.524100
H       1.017827    1.539592   -0.365745
H       0.570003   -0.724964   -0.647356
H       0.459419   -0.240488    1.057770
H      -1.979888    0.104839    0.831400
H      -3.023182    0.083612   -1.476970
H      -1.393004   -0.224475   -2.127728
H      -2.284178   -2.780831   -1.971773
H      -1.056064   -2.744126    0.646402
H      -3.687087   -3.658157    1.354527
