20

C       0.107701    0.978514   -1.201017
C      -0.570322    0.312956   -0.015332
O      -0.665628   -1.076243   -0.281675
C      -1.187880   -1.848170    0.778786
C      -2.715159   -1.802949    0.845557
C      -3.485571   -2.532750   -0.273850
O      -4.027311   -3.476146    0.707556
C      -3.358382   -2.847832    1.737325
N      -3.310002   -3.105185    2.963304
H       0.202863    2.054896   -1.030217
H       1.105744    0.559329   -1.355442
H      -0.474372    0.822057   -2.113676
H       0.010041    0.477019    0.907264
H      -1.566805    0.753651    0.148133
H      -0.862224   -2.878378    0.597018
H      -0.770984   -1.533810    1.747001
H      -3.071188   -0.790223    1.048335
H      -4.288420   -1.976203   -0.762090
H      -2.870783   -3.047574   -1.016162
H      -3.877317   -3.922241    3.196122
