18

C       0.304125    1.619537   -0.111159
C       0.083157    0.112436    0.044196
C       0.595969   -0.678322   -1.147843
O       2.010747   -0.565013   -1.329029
C       1.494958   -1.739641   -0.689159
C       1.588193   -1.690475    0.816109
N       0.839387   -0.479255    1.164833
C       0.748918   -0.086011    2.459576
O       1.303882   -0.645222    3.385131
H       1.364507    1.822309   -0.277801
H      -0.265891    1.993219   -0.968004
H      -0.027107    2.170141    0.772644
H      -0.991888   -0.095125    0.155121
H      -0.000641   -0.733137   -2.054167
H       1.642805   -2.675295   -1.219774
H       1.135366   -2.582754    1.267658
H       2.617519   -1.621807    1.180544
H       0.107731    0.806257    2.593098
