17

O       0.121629    1.425108    0.191050
C       0.053396    0.012447    0.237846
C      -1.343945   -0.522535   -0.129333
C      -1.398955   -2.024936   -0.073388
C      -2.030972   -2.709580    0.971345
N      -2.063598   -4.039326    1.049016
C      -1.450180   -4.699639    0.065416
C      -0.816307   -4.031528   -0.978892
N      -0.786670   -2.701363   -1.055154
H       0.025858    1.695496   -0.727806
H       0.801199   -0.459116   -0.415728
H       0.296470   -0.265413    1.268996
H      -2.082447   -0.082130    0.547470
H      -1.585993   -0.199543   -1.148903
H      -2.529774   -2.159361    1.766077
H      -1.466130   -5.785406    0.108896
H      -0.322884   -4.582884   -1.775692
