14

N      -0.114860    1.279786    0.007105
C      -0.025086    0.017479    0.000526
C      -1.221663   -0.927689    0.002512
C      -0.591380   -2.295514   -0.007451
C       0.734641   -2.179055   -0.014119
N       1.130521   -0.819032   -0.009756
C       2.447236   -0.418201   -0.015189
O       3.385322   -1.181145   -0.025747
H       0.787450    1.753735    0.004476
H      -1.845306   -0.742014    0.884437
H      -1.854810   -0.733660   -0.870806
H      -1.138179   -3.226155   -0.008899
H       1.515545   -2.923214   -0.021914
H       2.558088    0.679397   -0.012173
