21

C       0.319649    1.275105    0.563174
C      -0.143734   -0.079736    0.011572
C       0.535555   -0.465402   -1.288481
C       1.998169   -0.912614   -1.274548
C       0.973694   -1.943757   -1.522899
O       0.747144   -2.879298   -0.533828
C      -0.477237   -3.576805   -0.695143
C       0.071102    0.196855   -2.527571
O       0.612742    0.099895   -3.607004
H       1.396437    1.272487    0.760333
H       0.116473    2.086373   -0.144267
H      -0.193948    1.513561    1.499671
H       0.039432   -0.865354    0.750886
H      -1.230270   -0.054131   -0.147935
H       2.608351   -0.592934   -2.111735
H       2.480187   -0.926475   -0.303044
H       0.839897   -2.298542   -2.544932
H      -1.339535   -2.899595   -0.629928
H      -0.512901   -4.098471   -1.661888
H      -0.533955   -4.311848    0.110081
H      -0.868177    0.785882   -2.413974
