22

C       0.052400    1.527321    0.062527
C       0.013429   -0.003461   -0.046111
C      -1.399423   -0.593291   -0.013639
C      -2.272382   -0.041304   -1.140792
C      -1.600315   -2.128366    0.147819
C      -0.786668   -2.505849    1.411052
C      -1.742148   -1.576025    2.160623
C      -2.781147   -1.726451    1.116922
N      -2.137985   -0.401232    1.296003
H       1.083639    1.877755    0.167967
H      -0.371535    2.015314   -0.819635
H      -0.512243    1.864101    0.937098
H       0.506034   -0.327790   -0.972906
H       0.601446   -0.417569    0.777037
H      -1.785673   -0.194901   -2.109983
H      -3.244904   -0.541073   -1.167312
H      -2.453216    1.028819   -1.012756
H      -1.639035   -2.792514   -0.714964
H      -0.979301   -3.542610    1.701281
H       0.291113   -2.323022    1.423903
H      -1.858660   -1.435466    3.227123
H      -3.847108   -1.908348    1.148876
