19

C      -0.089825    1.537636   -0.067145
C       0.024945    0.017607    0.038282
C       0.934521   -0.631323   -1.096409
C       1.874311   -1.310197   -0.134395
O       3.045179   -2.160726   -0.027439
C       2.624756   -1.847286    1.382337
C       2.243771   -0.383867    1.058762
C       0.730320   -0.472255    1.355779
C       1.113785   -1.938449    1.067302
H       0.896240    2.014141   -0.028656
H      -0.567218    1.838255   -1.005553
H      -0.687652    1.943744    0.756122
H      -0.978823   -0.419845   -0.014395
H       0.378720   -1.319138   -1.738671
H       1.414144    0.127353   -1.721283
H       3.237713   -2.286893    2.167518
H       2.909194    0.476710    1.003898
H       0.285932   -0.144255    2.296486
H       0.493064   -2.832667    1.018690
