17

C      -0.124980    1.592049   -0.102680
C       0.028732    0.081746   -0.043098
O      -1.211105   -0.556717    0.169819
C       0.729787   -0.647688   -1.188128
C       2.165028   -0.326054   -1.270180
N       1.738274   -1.330270   -0.275748
C       1.149723   -0.555119    0.882356
C       2.065343    0.324000    1.593386
N       2.773776    1.058766    2.137956
H       0.823198    2.097830   -0.295488
H      -0.833976    1.857337   -0.892480
H      -0.508037    1.975686    0.850914
H      -1.680915   -0.085304    0.866689
H       0.189726   -1.200599   -1.948484
H       2.726293   -0.771989   -2.084825
H       2.550832    0.631410   -0.930639
H       0.689073   -1.259780    1.576883
