16

C      -0.143159    1.336723    0.105099
N       1.329312    1.609934   -0.203304
C       2.326201    0.447141    0.004945
C       2.419293   -0.847784    0.804589
O       1.738207   -1.122596    2.019241
C       1.290767   -1.800421    0.808564
C       0.015178   -1.142033    0.414676
C       0.092137   -0.074633   -0.390062
C       1.350054    0.410401   -1.094429
H      -0.459048    1.459107    1.144251
H      -0.693649    2.017374   -0.550832
H       3.300547    0.886975   -0.189378
H       3.437705   -1.239227    0.782471
H       1.455826   -2.874490    0.811879
H      -0.789343   -1.199031    1.145386
H       1.537629    0.465785   -2.161704
