17

C      -0.346169    1.162972   -0.112477
C       1.121420    1.057664    0.260945
C       0.320164   -0.173172   -0.000616
O       0.050039   -0.964759    1.138682
C      -0.951863   -1.847904    0.994736
N      -1.673276   -2.095728   -0.065425
C      -2.537696   -3.104729    0.332648
C      -2.321473   -3.450282    1.633234
N      -1.286459   -2.625417    2.058769
H      -1.037905    1.433826    0.676629
H      -0.618833    1.516606   -1.100116
H       1.875231    1.342475   -0.464048
H       1.384215    1.258719    1.293269
H       0.485582   -0.760312   -0.896907
H      -3.263731   -3.514557   -0.352279
H      -2.779720   -4.170634    2.289064
H      -0.851299   -2.601825    2.964697
