18

C      -0.052424    1.552408    0.012957
C       1.497540    1.525367   -0.031397
C       1.455751    0.075416    0.548340
C      -0.036695    0.003719    0.092739
C       2.405719   -0.926543    0.009316
N       2.621808   -1.246374   -1.230328
C       3.600558   -2.228680   -1.177753
C       3.931082   -2.455569    0.114026
O       3.171746   -1.626194    0.890879
H      -0.425129    2.003696    0.937098
H      -0.573336    2.008751   -0.831092
H       1.874363    1.509077   -1.056698
H       2.047479    2.274842    0.542295
H       1.534994    0.084490    1.637784
H      -0.739819   -0.489650    0.767617
H      -0.105417   -0.454563   -0.896584
H       3.989769   -2.694419   -2.069216
H       4.617781   -3.105534    0.627843
