14

C      -0.037057    1.506684   -0.025055
C      -0.010890    0.007470   -0.000854
N      -0.029990   -0.641925   -1.167151
C      -0.006028   -1.974943   -1.128954
N       0.035523   -2.753112   -0.046136
C       0.054712   -2.112969    1.119528
C       0.032964   -0.718206    1.208000
C       0.054479   -0.062528    2.474275
N       0.071902    0.476467    3.499002
H       0.850688    1.918531    0.466863
H      -0.075144    1.855079   -1.056932
H      -0.905041    1.889250    0.522472
H      -0.022052   -2.483513   -2.089707
H       0.088495   -2.718265    2.021645
