15

C       0.150364    1.575734    0.032710
N       1.264525    0.628026   -0.090980
C      -0.109244    0.104587    0.025079
C      -0.428294   -0.653498    1.252196
C      -1.536500   -1.440384    1.500904
N      -1.396192   -1.913954    2.763876
N      -0.266498   -1.496433    3.364289
C       0.322955   -0.731574    2.450524
H       0.113175    2.113242    0.975970
H      -0.152257    2.154510   -0.836672
H       1.580858    0.575911   -1.055023
H      -0.573522   -0.279791   -0.881384
H      -2.390141   -1.691269    0.890759
H      -2.017628   -2.525501    3.264724
H       1.274115   -0.266182    2.658293
