16

C       0.021233    1.520681   -0.002008
C      -0.021754    0.010737   -0.000308
C      -1.225492   -0.618209   -0.109390
C      -1.602796   -2.032224   -0.138971
O      -2.781385   -2.353739   -0.246986
C      -0.580503   -3.088064   -0.040161
C       0.758221   -2.969168    0.083243
C       1.560521   -1.772058    0.152899
N       1.249664   -0.520327    0.119389
H       0.651294    1.871662   -0.826099
H      -0.970625    1.965520   -0.095499
H       0.489578    1.878229    0.921084
H      -2.101926    0.018997   -0.192972
H      -1.013768   -4.084617   -0.076338
H       1.335545   -3.889388    0.140246
H       2.631797   -1.964705    0.252762
