19

C      -0.006060    1.509992    0.063660
C      -0.003657   -0.004092    0.027705
C       0.258428   -0.708567   -1.331815
N      -0.927406   -1.615033   -1.164313
C      -0.877053   -2.168040    0.224257
C       0.450236   -2.200063    0.974928
C       0.833074   -0.703497    1.113396
C      -1.349998   -0.786442    0.020705
H       1.003925    1.908157   -0.086991
H      -0.648422    1.927292   -0.719031
H      -0.367319    1.882889    1.029173
H       0.072474   -0.061572   -2.193416
H       1.220356   -1.217301   -1.470494
H      -1.584705   -2.980535    0.351844
H       0.328170   -2.686477    1.947145
H       1.206226   -2.773737    0.427594
H       1.905861   -0.524402    0.980140
H       0.552854   -0.322818    2.103003
H      -2.357022   -0.404070    0.146874
