18

C      -0.013291   -1.020423   -0.455580
C      -0.011396    0.123498   -0.086128
C       0.021491    1.513045    0.359994
C       1.393085    2.154781    0.174797
C       1.918028    2.724218   -1.112477
C       0.821595    3.440869   -1.911478
C       0.552695    4.371017   -0.684174
C       1.648520    3.635473    0.099487
H      -0.025537   -2.030558   -0.781786
H      -0.746271    2.081412   -0.175968
H      -0.257478    1.561201    1.420999
H       2.168689    1.632777    0.730843
H       2.866922    2.397952   -1.521545
H       1.218463    3.995726   -2.763984
H      -0.007533    2.819526   -2.265357
H       0.819315    5.408816   -0.894775
H      -0.453967    4.360839   -0.252696
H       2.358121    4.114444    0.764449
