21

C      -1.524577    2.753420    1.064788
C      -0.931693    1.478735    0.445280
C       0.197385    0.884924    1.316286
C       1.405085    1.792104    1.385107
O       1.928982    2.176531    2.397869
C      -2.020947    0.445064    0.242337
O      -2.992286    0.706318   -0.774292
C      -2.149782   -0.444403   -0.926055
C      -1.218184   -0.472416   -2.111071
H      -0.763318    3.529057    1.193496
H      -2.317530    3.150642    0.425855
H      -1.954310    2.544540    2.051163
H      -0.513426    1.735516   -0.534749
H      -0.145367    0.679943    2.335513
H       0.532491   -0.064011    0.872532
H       1.801641    2.094296    0.385911
H      -2.459481    0.088801    1.179502
H      -2.676649   -1.386196   -0.755488
H      -0.713088    0.483836   -2.259250
H      -0.461969   -1.255138   -1.985245
H      -1.780920   -0.698089   -3.022840
