20

C       0.036315    0.317407    2.610268
O       0.584627    1.005942    1.504782
C       0.746069    0.220931    0.331214
C       0.876713    1.192142   -0.837515
C       1.966938   -0.673013    0.440871
N       1.796918   -1.988346    1.067259
C       2.125952   -1.919048   -0.377035
C       1.133437   -2.370071   -1.314713
C       0.333144   -2.742515   -2.131355
H       0.697896   -0.472475    2.986948
H      -0.119521    1.059161    3.398263
H      -0.930911   -0.143290    2.358384
H      -0.135347   -0.421770    0.187480
H       1.764908    1.821013   -0.717674
H       0.955454    0.646059   -1.781335
H       0.001766    1.845458   -0.877507
H       2.887340   -0.127762    0.649351
H       2.630567   -2.248223    1.588705
H       3.147066   -2.164936   -0.661341
H      -0.382249   -3.076938   -2.841311
