20

C       0.615020    1.450860    0.262159
C       0.104907    0.049376    0.003776
C       0.501671   -0.664133   -1.308762
C       1.055119   -1.764210   -0.380384
C       2.518903   -2.151569   -0.501682
C       2.978853   -2.948908    0.735492
C       4.394082   -3.303568    0.681649
N       5.515260   -3.577135    0.620519
O       0.802582   -0.953644    0.791216
H       1.685509    1.522824    0.046725
H       0.082161    2.172330   -0.366949
H       0.455705    1.728691    1.308833
H      -0.974231   -0.003863    0.204824
H      -0.310387   -0.950610   -1.977821
H       1.273207   -0.139509   -1.878327
H       0.429205   -2.669708   -0.360213
H       2.666950   -2.746061   -1.410459
H       3.130007   -1.247981   -0.596059
H       2.791733   -2.351826    1.634036
H       2.392189   -3.869696    0.836873
