18

C      -0.029615    1.368542   -0.130050
O      -0.042455    0.059101    0.394721
C      -1.255803   -0.603848    0.190988
C      -1.628439   -1.202599   -1.200390
N      -1.847619   -2.565896   -0.588891
C      -0.525482   -2.999654   -0.060461
C       0.719585   -2.741430   -0.728217
C       1.762995   -2.609742   -1.311261
C      -1.318341   -2.019679    0.729420
H       0.943860    1.802947    0.107317
H      -0.163402    1.375671   -1.222079
H      -0.818444    1.993133    0.318600
H      -2.091226   -0.003081    0.581905
H      -2.564993   -0.830847   -1.618246
H      -0.842482   -1.184545   -1.958973
H      -0.603495   -4.014291    0.325183
H       2.691057   -2.467925   -1.807414
H      -1.749268   -2.305477    1.683935
