16

C       0.018370    1.501804   -0.001308
C       0.018644    0.003615   -0.061246
N       0.004014   -0.616730   -1.207068
C       0.005708   -1.995540   -1.134316
C      -0.010697   -2.688022   -2.464470
N       0.020411   -2.727047   -0.053546
C       0.036105   -2.096569    1.176096
O       0.050823   -2.639028    2.254849
N       0.034327   -0.675918    1.106500
H       0.908410    1.868134    0.521507
H       0.005843    1.899576   -1.014979
H      -0.859375    1.866878    0.542759
H       0.860857   -2.379900   -3.051447
H      -0.010337   -3.769242   -2.333164
H      -0.894761   -2.377632   -3.031109
H       0.045672   -0.195483    1.996271
