17

C       0.114022    1.424935   -0.108416
C      -0.048467   -0.092980   -0.010432
C       0.747606   -0.692262    1.153907
O       1.593869   -0.108019    1.775043
N      -1.427456   -0.552472    0.055631
C      -2.274024   -0.119195    1.159888
C      -1.962993   -1.337274   -0.929292
O      -3.103662   -1.741912   -0.964101
H       1.173941    1.678217   -0.176167
H      -0.404026    1.807366   -0.991298
H      -0.283575    1.925452    0.777982
H       0.382996   -0.558364   -0.910394
H       0.476229   -1.750159    1.374736
H      -2.530593    0.942848    1.079762
H      -3.190685   -0.707391    1.120759
H      -1.773001   -0.283692    2.119818
H      -1.216146   -1.574068   -1.713266
