16

C       0.001323    1.476861    0.006382
N       0.009539    0.028298   -0.026634
C       0.038204   -0.768627   -1.151627
C       0.038050   -2.087395   -0.847290
C       0.005734   -2.216806    0.652652
C      -0.012127   -0.765511    1.135740
O      -0.039024   -0.327177    2.258809
C       0.064432   -3.172166   -1.801790
O       0.063774   -4.351374   -1.507499
H       0.899906    1.887793   -0.464872
H      -0.882725    1.878676   -0.499048
H      -0.020431    1.770689    1.056911
H       0.057511   -0.310721   -2.132707
H      -0.876758   -2.747612    1.024501
H       0.876295   -2.738856    1.063023
H       0.086197   -2.844152   -2.866577
