23

C      -0.358315    1.551902    0.039661
C       0.024483    0.065466    0.000560
C       0.668903   -0.388152   -1.327037
C       1.322288    0.547027   -2.318424
C       2.175524   -0.339987   -1.448940
C       2.915997    0.238933   -0.245955
C       2.390095   -0.350737    1.060314
C       1.697511    0.528228    2.069550
C       0.884615   -0.398959    1.195567
H       0.507067    2.217904   -0.031483
H      -1.025426    1.796319   -0.792890
H      -0.874219    1.788742    0.975433
H      -0.918889   -0.484400    0.078874
H       0.190541   -1.257554   -1.767900
H       1.229160    0.311783   -3.373645
H       1.329280    1.611482   -2.107114
H       2.656584   -1.187493   -1.928285
H       3.990548    0.054569   -0.338631
H       2.802889    1.329221   -0.231611
H       2.944937   -1.201939    1.443800
H       1.784716    0.283950    3.123223
H       1.669300    1.594447    1.869181
H       0.487415   -1.272428    1.703833
