18

C       0.033707    1.594302    0.186044
C       0.121663    0.104172    0.027194
C      -0.896686   -0.840993    0.608902
C       0.548173   -0.870265    1.090858
C       1.454834   -1.868430    0.408967
O       1.134201   -3.202418    0.776701
C       1.202252   -1.585814   -1.098872
O       0.707775   -0.260009   -1.208631
H       1.025739    2.050566    0.108920
H      -0.600625    2.026853   -0.594604
H      -0.396316    1.853532    1.157173
H      -1.629026   -0.423794    1.291558
H      -1.261719   -1.671777    0.015952
H       0.782273   -0.556192    2.101024
H       2.498209   -1.642801    0.674367
H       1.798851   -3.786062    0.397017
H       2.102248   -1.662870   -1.717211
H       0.469492   -2.321052   -1.461902
