21

C       0.298581   -1.289556    0.528315
C       0.129781   -0.132984    0.245718
C      -0.062031    1.280243   -0.075150
C      -0.921792    1.976645    1.013624
C      -1.423089    3.364732    0.583827
C      -0.417789    4.508311    0.803321
O       0.941722    4.162884    0.616652
C       1.254455    3.461923   -0.574676
C       1.307820    1.952293   -0.332406
H       0.441797   -2.313733    0.768626
H      -0.638465    1.332153   -1.011500
H      -1.781825    1.331087    1.216094
H      -0.349621    2.041387    1.945813
H      -1.725027    3.320531   -0.470042
H      -2.332465    3.620561    1.140050
H      -0.690698    5.361708    0.160459
H      -0.470534    4.853942    1.841291
H       0.556253    3.717042   -1.386254
H       2.247783    3.805572   -0.886063
H       1.958976    1.778583    0.531339
H       1.781897    1.463658   -1.191776
