17

O       0.249157    0.025495   -0.312581
C       0.059084    1.180869   -0.088865
C      -1.129167    2.055100    0.318846
O      -0.256882    3.199200    0.357599
C       0.936470    2.456002   -0.049581
C       2.093652    2.501708    0.975743
C       3.392187    2.684833    0.150173
C       2.885361    3.038968   -1.224141
C       1.563040    2.917864   -1.331485
H      -1.922431    2.140714   -0.435316
H      -1.579606    1.818550    1.291367
H       1.907867    3.366243    1.619094
H       2.119014    1.613863    1.611979
H       4.053658    3.455135    0.563015
H       3.981030    1.759574    0.118629
H       3.548307    3.335528   -2.029921
H       0.970731    3.097452   -2.220603
