22

C       0.067714    1.613456    0.045085
C       0.006322    0.083275    0.023415
C       0.631290   -0.511125   -1.244680
C       0.654260   -2.049906   -1.283855
C      -0.746469   -2.662250   -1.419528
C       1.575519   -2.522563   -2.437611
O       2.888919   -1.994264   -2.370489
C       1.630629   -3.998548   -2.513313
N       1.703392   -5.151831   -2.537856
H       1.102573    1.969127   -0.006896
H      -0.471412    2.043093   -0.806454
H      -0.378729    2.016687    0.959146
H       0.527435   -0.316455    0.903755
H      -1.038210   -0.236166    0.117314
H       0.088226   -0.142766   -2.127357
H       1.658464   -0.144488   -1.342764
H       1.106777   -2.416900   -0.350077
H      -0.710606   -3.754806   -1.435412
H      -1.384180   -2.363765   -0.584242
H      -1.230399   -2.325581   -2.344129
H       1.167353   -2.154689   -3.386814
H       3.315177   -2.348973   -1.581376
