14

O      -0.088439    1.406826    0.010293
C       1.250251    1.792557   -0.000261
N       2.195559    0.932051   -0.013689
C       1.487437   -0.316694   -0.013740
C       1.232617   -1.593485   -0.793162
C      -0.304683   -1.240120   -0.786176
C      -0.289802   -1.248433    0.782569
C       1.247279   -1.601852    0.756547
C       0.014925    0.000375    0.001838
H       1.381683    2.867419    0.004295
H       1.861891   -2.160535   -1.467545
H      -1.132621   -1.521256   -1.424424
H      -1.105515   -1.536381    1.433397
H       1.889146   -2.176099    1.412729
