25

C       0.691459    1.721900    0.016104
C       0.268915    0.273390    0.273096
C       0.886847   -0.338583    1.532990
C       0.216185   -1.655141    1.930047
O       2.275505   -0.561113    1.266543
C       3.156243   -0.493869    2.394502
C       4.243534   -1.545274    2.199338
C       3.716226    0.933152    2.459157
O       4.324786    1.293073    1.233040
H       1.779439    1.824765   -0.025536
H       0.285247    2.090141   -0.930676
H       0.330149    2.383834    0.811145
H      -0.822710    0.219465    0.360603
H       0.546924   -0.362501   -0.576401
H       0.786680    0.382538    2.359993
H       0.704022   -2.099224    2.803241
H      -0.838119   -1.496318    2.178719
H       0.275343   -2.373235    1.105991
H       2.600753   -0.704684    3.319524
H       4.834395   -1.316722    1.308893
H       4.917921   -1.562320    3.061266
H       3.799076   -2.536599    2.081385
H       2.901894    1.630311    2.716416
H       4.479105    1.013168    3.241679
H       3.739255    0.942295    0.549291
