19

C      -0.052641    1.524366    0.107220
C       1.289174    0.837406    0.012156
C       0.005425    0.020445    0.014260
C      -0.019429   -0.583945   -1.402198
O      -0.201404    0.493455   -2.354282
C       1.169930    0.796819   -2.671636
C       1.672094   -0.566402   -3.199792
C       1.466179   -0.946741   -1.713779
C       1.933541    0.500817   -1.328092
H      -0.303182    1.938710    1.078906
H      -0.438251    2.075447   -0.738976
H       1.941464    0.870601    0.878430
H      -0.303082   -0.592598    0.854033
H      -0.776511   -1.351958   -1.567883
H       1.225847    1.734813   -3.222813
H       1.056917   -1.043456   -3.965570
H       2.727134   -0.570338   -3.482172
H       1.874322   -1.841863   -1.244542
H       3.005908    0.682299   -1.396299
