19

C      -0.018079    1.540893   -0.022952
C       1.498247    1.840501   -0.001404
C       2.030872    1.644298    1.445428
C       1.474346    0.390295    2.112055
O       0.098768    0.417276    2.535711
C       0.451221   -0.428718    1.439554
C       0.010568   -0.000663    0.037198
C       1.178361   -0.304069   -0.900818
C       2.017099    0.733225   -0.909573
H      -0.565281    1.987026    0.808675
H      -0.459631    1.866453   -0.968904
H       1.752605    2.844455   -0.352662
H       3.124881    1.577725    1.435773
H       1.772585    2.513981    2.061748
H       2.132084   -0.090251    2.836192
H       0.398732   -1.495551    1.658697
H      -0.934952   -0.474822   -0.239930
H       1.324078   -1.256104   -1.397446
H       2.973710    0.778376   -1.417955
