18

C      -0.102577    1.536236   -0.039241
C      -0.030929    0.043047    0.033034
C      -0.017962   -0.819218   -1.025125
O       0.060271   -2.143811   -0.603532
C       0.079516   -2.063208    0.732487
C       0.019748   -0.796984    1.200367
C       0.182422   -0.845400    2.695523
C       0.008593   -2.384156    2.960919
N       0.292986   -3.076257    1.662298
H       0.771875    2.002902    0.429275
H      -0.148846    1.880982   -1.076027
H      -0.986952    1.921202    0.481766
H      -0.085524   -0.682322   -2.090969
H       1.177271   -0.506796    3.015103
H      -0.549163   -0.266835    3.269136
H       0.682585   -2.754206    3.736796
H      -1.022663   -2.585715    3.277632
H      -0.265500   -3.911321    1.526067
