15

N      -0.153816    1.270813   -0.310138
C      -0.007618    0.008167    0.170448
O       1.030970   -0.469779    0.576104
C      -1.298808   -0.765723    0.150623
O      -2.514000   -0.126837   -0.354289
C      -2.958746   -1.463374    0.018689
C      -1.641100   -2.175200   -0.435967
N      -1.386036   -2.854556    0.872788
C      -2.032926   -1.566873    1.276336
H       0.649737    1.875964   -0.341706
H      -1.049326    1.599380   -0.630511
H      -4.006692   -1.727856   -0.127055
H      -1.368143   -2.588001   -1.406755
H      -2.043250   -3.629008    0.997583
H      -2.218143   -1.268419    2.307827
