23

C       0.024822    1.553657   -0.166249
C       0.040956    0.030501    0.004926
C      -1.359932   -0.564336    0.089629
C      -2.264066   -0.531854   -1.184285
C      -2.714763   -1.945244   -0.822574
C      -4.069955   -2.492295   -0.757010
O      -3.132534   -2.928969   -1.753274
C      -1.556635   -2.123123    0.171122
C      -0.424548   -2.995080   -0.369988
H       1.040001    1.958363   -0.223297
H      -0.500881    1.844110   -1.082293
H      -0.482127    2.041228    0.673997
H       0.587989   -0.422476   -0.830733
H       0.600518   -0.228633    0.913394
H      -1.893629   -0.096902    0.925167
H      -3.029798    0.244281   -1.253851
H      -1.673806   -0.526784   -2.107075
H      -4.322264   -3.232640    0.002082
H      -4.910729   -1.910132   -1.133729
H      -1.853424   -2.485034    1.161034
H      -0.108749   -2.683190   -1.370452
H       0.450219   -2.964448    0.287041
H      -0.757678   -4.034227   -0.447292
