17

C      -0.120198    1.479186    0.036754
O       0.001639    0.084977   -0.210126
C      -1.162418   -0.648354    0.036211
C      -1.049317   -2.050310   -0.583224
N      -1.855273   -2.872293    0.315230
C      -1.977081   -2.373053    1.594755
N      -2.430042   -2.888256    2.667328
C      -1.452337   -0.945024    1.521415
O      -1.268224   -0.204704    2.448152
H       0.831751    1.929395   -0.252419
H      -0.923037    1.917551   -0.575995
H      -0.320335    1.685676    1.091969
H      -2.053946   -0.136113   -0.368691
H      -1.433808   -2.092534   -1.605355
H       0.009434   -2.341639   -0.596576
H      -1.977529   -3.856390    0.135858
H      -2.720247   -3.859373    2.527721
