23

C      -0.029381    1.549791    0.122428
C       1.522357    1.453318    0.046705
C       1.329107    0.138556    0.869450
C       0.003436   -0.004941    0.054062
C       0.312260   -0.483675   -1.416538
C      -0.161655    0.540238   -2.485318
C       0.971461    1.628200   -2.490766
C       1.980664    1.118151   -1.424627
C       1.833747   -0.399778   -1.651037
H      -0.347533    1.886182    1.113313
H      -0.580557    2.120147   -0.622977
H       2.113000    2.264056    0.479907
H       2.083711   -0.647541    0.848788
H       1.108042    0.374084    1.913648
H      -0.828483   -0.559957    0.494159
H      -0.105648   -1.479672   -1.583957
H      -0.225155    0.048245   -3.460901
H      -1.151111    0.953569   -2.274587
H       1.460702    1.666989   -3.469024
H       0.599740    2.634637   -2.282958
H       2.991977    1.494355   -1.598992
H       2.441325   -1.029334   -1.003011
H       2.083279   -0.664901   -2.684897
