19

C       0.082446    1.468362    0.019258
C      -0.070133   -0.018290   -0.024024
C      -0.139273   -0.814177   -1.106036
C      -0.027104   -2.238926   -0.642830
O       1.373087   -2.387906   -0.129066
C       0.897644   -2.133236    1.174125
C       1.756140   -2.544963    2.323028
C      -0.542527   -2.255510    0.823961
C      -0.060129   -0.869865    1.195962
H       1.048706    1.751424    0.455447
H       0.022372    1.905891   -0.980672
H      -0.691133    1.932598    0.643573
H      -0.059975   -0.501687   -2.139457
H      -0.264725   -3.048961   -1.330002
H       2.715782   -2.017945    2.288306
H       1.269760   -2.307168    3.273320
H       1.958679   -3.620547    2.293630
H      -1.379682   -2.791766    1.253841
H      -0.283042   -0.466400    2.177601
