18

O      -0.068621    1.338199   -0.141643
C      -0.031616   -0.064773    0.018518
C      -0.326980   -0.506193    1.429261
C      -1.328318   -0.767937    0.324811
C       1.017831   -0.724074   -0.791170
C       1.113452   -1.959338   -1.398891
C       2.397351   -2.042157   -2.006697
C       3.046242   -0.854021   -1.761498
N       2.203667   -0.067099   -1.020652
H      -0.360246    1.514727   -1.044221
H       0.238217   -1.342841    1.822030
H      -0.560030    0.277835    2.140945
H      -2.220348   -0.152027    0.308225
H      -1.466477   -1.784622   -0.025077
H       0.347507   -2.719523   -1.409184
H       2.792689   -2.874657   -2.568205
H       4.020938   -0.501434   -2.058245
H       2.377542    0.871402   -0.703807
