14

N      -0.032892    1.298711    0.132718
C      -0.139314    0.086918   -0.197536
O      -1.042898   -0.703008    0.432173
C      -0.977894   -2.055455    0.200251
C       0.139640   -2.861176    0.241090
N      -0.293239   -4.140917   -0.014012
C      -1.649358   -4.153169   -0.201238
C      -2.110845   -2.863236   -0.076004
H       0.660396    1.756060   -0.455798
H       0.420235   -0.448615   -0.974673
H       1.171679   -2.637650    0.451530
H       0.301626   -4.949435   -0.045271
H      -2.173634   -5.071190   -0.410675
H      -3.129488   -2.523487   -0.168947
