15

N      -0.817873   -1.184137   -0.185996
C      -0.433602   -0.098756   -0.091833
C       0.030515    1.282023    0.029859
C      -0.181900    2.002012    1.431546
C       1.328116    2.165042    1.415419
C       2.540498    2.712446    1.754043
C       3.438848    2.285704    0.719462
C       2.754024    1.534483   -0.220286
N       1.472078    1.454290    0.258786
H      -0.347684    1.866937   -0.814406
H      -0.777890    2.914770    1.362696
H      -0.598971    1.351939    2.203705
H       2.786092    3.325451    2.606234
H       4.498350    2.493335    0.685649
H       3.085525    1.031586   -1.113219
