21

C       0.187581    1.346202    0.403088
C      -0.084430   -0.128413    0.120712
O      -1.467035   -0.397975   -0.107352
C       0.717552   -0.640545   -1.070628
O       2.160429   -0.503094   -0.933108
C       2.330068   -1.881901   -1.288309
C       1.706279   -2.766333   -0.255709
C       0.841006   -2.143623   -1.339609
C      -0.036025   -2.923170   -2.272931
H       1.250609    1.505211    0.603886
H      -0.085343    1.964461   -0.462193
H      -0.394523    1.684737    1.264540
H       0.174275   -0.720218    1.005029
H      -1.776540    0.215272   -0.783495
H       0.389606   -0.109109   -1.979332
H       3.154750   -2.138020   -1.943681
H       1.872517   -3.831409   -0.390281
H       1.667970   -2.438816    0.779385
H      -1.026749   -3.079437   -1.831994
H      -0.172710   -2.397226   -3.224987
H       0.392149   -3.906256   -2.492951
