14

O       0.318451   -0.133588   -0.104432
C       0.097982    1.040261    0.000449
C       1.201142    2.103966    0.115870
O       2.472534    1.534434    0.311374
C       3.237285    1.603193   -0.889014
C       2.487502    2.555327   -1.771531
C       1.322298    2.872052   -1.199806
C       0.314101    3.735670   -1.694903
N      -0.531111    4.437763   -2.061835
H      -0.934467    1.457135    0.006606
H       0.952474    2.765277    0.959698
H       4.249298    1.954661   -0.648380
H       3.330333    0.610065   -1.355019
H       2.848091    2.911924   -2.726939
