18

C      -0.060649    1.540983    0.029002
C      -0.003679    0.008931    0.010710
C       0.706699   -0.538310    1.254595
N      -1.369662   -0.510945   -0.016793
C      -1.751433   -1.234860   -0.959398
O      -1.041486   -1.659032   -2.068167
C      -1.902468   -2.438827   -2.816724
C      -3.078207   -2.492586   -2.203216
O      -3.019669   -1.752546   -1.041171
H       0.948482    1.963352    0.075743
H      -0.552755    1.924429   -0.869699
H      -0.625886    1.889344    0.899066
H       0.561783   -0.306066   -0.877868
H       0.161759   -0.251909    2.159541
H       0.761892   -1.630537    1.224168
H       1.726053   -0.143965    1.320995
H      -1.520325   -2.861802   -3.728499
H      -4.010985   -2.976583   -2.430416
