17

O      -0.730122    1.435324   -0.421237
C       0.168652    1.384391    0.369113
C       1.422712    2.268669    0.329050
O       2.271267    2.164535    1.182145
O       1.426414    3.089682   -0.714843
C       2.568181    3.979632   -0.856768
C       2.286856    5.328884   -0.259867
C       2.501645    5.564747    1.215723
C       3.451192    6.166657    0.214410
H       0.197515    0.689002    1.231982
H       3.436200    3.511481   -0.386430
H       2.724922    4.042214   -1.936312
H       1.463641    5.860860   -0.727202
H       1.809246    6.223983    1.726841
H       2.848601    4.726098    1.807711
H       4.447038    5.742297    0.140012
H       3.411341    7.234800    0.034618
