17

O       0.931502    0.354486   -0.157954
C       0.166288   -0.791203    0.121689
C      -1.337673   -0.432003    0.091868
O      -1.596299    0.288090   -1.091966
C      -2.261077   -1.644963    0.147163
O      -2.958183   -1.911504   -0.811296
C      -2.355205   -2.477579    1.390834
C      -1.225911   -3.295565    1.879365
O      -1.591652   -2.084387    2.529052
H       0.514753    0.759667   -0.930209
H       0.357791   -1.594041   -0.611136
H       0.452212   -1.141722    1.116377
H      -1.550521    0.203837    0.962938
H      -2.185967   -0.277222   -1.618073
H      -3.364069   -2.834695    1.593129
H      -1.451790   -4.210454    2.423511
H      -0.274139   -3.284088    1.353606
