21

C      -1.564188    0.059381   -0.371795
C      -0.073481   -0.039403   -0.023789
C       0.774367   -0.686837   -1.113319
C       0.830539    0.058826   -2.441892
C       1.495226    1.414184   -2.310624
O       1.038967    2.449244   -2.723441
C       2.033603   -1.429007   -0.679330
C       0.826582   -2.190745   -1.170018
O       0.028205   -2.892497   -0.262246
H      -1.740679    0.690603   -1.248266
H      -1.978369   -0.932784   -0.573117
H      -2.122739    0.496897    0.461330
H       0.324272    0.961730    0.189822
H       0.037200   -0.622080    0.894302
H       1.429363   -0.522105   -3.158082
H      -0.161226    0.199820   -2.880958
H       2.479180    1.390420   -1.786709
H       2.917743   -1.393698   -1.307871
H       2.237440   -1.467362    0.385734
H       0.889385   -2.646510   -2.158977
H       0.528228   -3.653362    0.050764
