16

O       0.502860    0.121398   -0.012238
C       0.780385    1.253564    0.253914
O       0.350917    2.280687   -0.517211
C       0.800067    3.615524   -0.232045
C       0.811435    4.023742    1.234013
C       1.973275    4.571276    1.590984
C       2.947004    4.530087    0.452305
N       3.248810    3.130026    0.048029
C       2.230844    3.907546   -0.687638
H       1.377439    1.571475    1.120292
H       0.094595    4.235631   -0.795951
H      -0.048718    3.865024    1.873750
H       2.218257    4.962286    2.570949
H       3.704911    5.293840    0.322162
H       4.103213    3.112338   -0.505767
H       2.416446    4.181102   -1.719253
