18

C      -0.143589    1.476507    0.062956
C       0.033438   -0.048872   -0.066502
C       0.707348   -0.409332   -1.310778
C       1.281889   -0.677047   -2.331871
C       0.803775   -0.608865    1.146492
N       0.129192   -0.403907    2.458383
C       0.257731   -1.834092    2.847172
C       0.737057   -2.127596    1.415865
O       0.937143   -3.112631    0.774805
H       0.827550    1.981386    0.051161
H      -0.737276    1.865582   -0.767878
H      -0.654720    1.708569    1.001017
H      -0.963490   -0.508882   -0.055564
H       1.778592   -0.936756   -3.233702
H       1.846259   -0.259518    1.107427
H       0.615311    0.234434    3.075968
H       1.030644   -2.059637    3.594736
H      -0.678741   -2.310597    3.156465
