15

N       0.021137    1.341294    0.039168
C       0.017365   -0.038358    0.118960
O       1.073080   -0.673740    0.234102
C      -1.246691   -0.726107    0.101783
C      -1.372566   -2.114517    0.040711
O      -0.352577   -2.978749    0.029004
C      -2.751769   -2.429346   -0.029986
C      -3.430741   -1.228361    0.007499
N      -2.536226   -0.199739    0.053448
H       0.939875    1.733051   -0.112693
H      -0.713214    1.783359   -0.492924
H       0.452163   -2.422710    0.126915
H      -3.185070   -3.413613   -0.102087
H      -4.492129   -1.035038    0.008515
H      -2.777444    0.740201    0.316266
