19

C      -0.286313    1.561688    0.067349
C      -0.031378    0.056199   -0.012033
C      -1.340616   -0.708786   -0.269065
C       1.055848   -0.315121   -1.079524
N       1.820684   -1.339182   -0.366875
C       1.534100   -1.172137    0.968388
C       2.368861   -1.837441    2.000913
O       3.363821   -2.467202    1.731005
N       0.531145   -0.432617    1.274981
H       0.634462    2.099646    0.311070
H      -0.664883    1.941088   -0.888205
H      -1.024315    1.783916    0.843075
H      -1.815692   -0.358012   -1.191642
H      -1.150556   -1.781945   -0.365472
H      -2.035798   -0.557726    0.560927
H       0.618526   -0.706817   -2.002492
H       1.681014    0.552515   -1.334600
H       2.766099   -1.576537   -0.627350
H       2.007766   -1.685480    3.035634
