12

C      -0.010341    1.442577   -0.019918
N      -0.081664   -0.008031   -0.051412
C       0.465399   -0.654383   -0.973361
O       1.138951    0.006881   -2.029361
N       1.922661   -0.698003   -2.951983
N       1.924118   -1.935478   -2.919649
C       1.118849   -2.573423   -1.954792
F       1.148675   -3.870040   -2.100593
N       0.436684   -2.042072   -1.036530
H       0.957737    1.837589   -0.348780
H      -0.783048    1.872587   -0.669492
H      -0.209060    1.778752    0.999864
