18

N       0.095206   -1.072664    0.055649
C       0.043894    0.083961    0.028568
C      -0.041446    1.511668    0.001086
C       0.378120    2.267587   -1.251333
C       1.200246    2.418901   -0.005756
C       0.791278    3.421249    1.090744
C      -0.700596    3.731243    0.794542
C      -0.875701    2.221145    1.100245
C       0.237192    2.440093    2.184130
H       0.815163    1.648598   -2.027742
H      -0.241301    3.069322   -1.632319
H       2.194892    1.990455    0.024134
H       1.506761    4.208774    1.325554
H      -1.142564    4.340516    1.584673
H      -0.997099    4.134923   -0.173684
H      -1.844830    1.782414    1.332579
H       0.853216    1.579432    2.456249
H      -0.127758    2.951082    3.078418
