13

O      -0.049965   -0.081618    0.003942
C       0.006719    1.133855    0.009277
N      -1.175871    1.904628    0.029267
C      -1.235348    3.262555    0.036798
C      -0.100577    4.009211    0.024937
C       1.151861    3.315008    0.004309
C       1.210140    1.947605   -0.003259
C       2.363851    4.081712   -0.008544
N       3.332695    4.714012   -0.018728
H      -2.025419    1.356236    0.038193
H      -2.226649    3.698511    0.052540
H      -0.140080    5.088153    0.030814
H       2.153374    1.417989   -0.018848
