18

C      -0.071694    1.576251    0.080879
C      -0.006596    0.054350    0.013401
C       0.723713   -0.571231    1.198393
C       0.881628   -2.091211    1.096003
O       1.627979   -2.627285    2.175861
O      -1.354602   -0.475861    0.011721
C      -1.926163   -0.757751   -1.171897
O      -3.052738   -1.141864   -1.273578
H       0.936468    2.001226    0.087845
H      -0.609084    1.982696   -0.781034
H      -0.590775    1.895813    0.989264
H       0.483508   -0.253887   -0.921741
H       1.718012   -0.118560    1.279185
H       0.178944   -0.317429    2.117251
H      -0.104926   -2.566797    1.009781
H       1.446099   -2.345775    0.191018
H       1.088776   -2.559256    2.970087
H      -1.239933   -0.606147   -2.028963
