23

C      -0.098472    1.449972   -0.796861
O      -0.061904    0.082495   -1.122616
C       0.740655   -0.673207   -0.240255
C       0.707681   -2.120054   -0.640050
C       1.705760   -3.156658   -0.099105
C       1.782943   -3.804616   -1.519129
C       0.783322   -2.761172   -2.033768
C      -0.503223   -2.782273   -1.240314
C      -1.189415   -4.023633   -0.709680
H      -0.511277    1.619643    0.210500
H       0.903212    1.907147   -0.836175
H      -0.740742    1.944832   -1.529539
H       1.780627   -0.298862   -0.258750
H       0.380995   -0.553737    0.799157
H       2.656595   -2.704071    0.195541
H       1.358474   -3.787635    0.725443
H       2.774518   -3.695199   -1.963700
H       1.484362   -4.854556   -1.605332
H       0.836816   -2.268910   -2.997951
H      -1.195458   -2.031457   -1.613297
H      -0.483059   -4.773602   -0.343702
H      -1.860916   -3.773989    0.119617
H      -1.793387   -4.497256   -1.491801
