17

O      -0.098294    1.438419    0.035845
C       0.039515    0.029229    0.006316
C       0.711839   -0.526963    1.267704
N       0.601209   -1.974182    1.422538
C      -0.328045   -2.578991    0.804363
N      -1.307272   -1.995304   -0.011101
C      -1.373203   -0.538538   -0.093535
C      -2.215496   -2.788752   -0.688219
O      -2.253468   -3.994430   -0.646914
H       0.780742    1.827280    0.085024
H       0.608659   -0.295572   -0.878938
H       1.778293   -0.269096    1.272499
H       0.271199   -0.034703    2.145385
H      -0.432432   -3.657868    0.872408
H      -1.976205   -0.127275    0.725490
H      -1.842473   -0.248453   -1.037201
H      -2.917133   -2.177359   -1.287757
