12

F       0.315484    0.104508    0.256498
C      -0.021064    1.389680    0.033568
F       1.086698    2.068741   -0.277133
F      -0.811484    1.401154   -1.051582
C      -0.692851    1.966284    1.232726
C      -0.830525    3.266855    1.668311
C      -1.613495    3.157729    2.835491
N      -1.933775    1.892870    3.104238
N      -1.367970    1.187746    2.115051
H      -0.422773    4.151993    1.209382
H      -1.951152    3.945624    3.491807
H      -1.441487    0.183568    2.107676
