18

O      -0.092053    1.426387    0.016327
C       0.005111    0.049457   -0.024703
C      -0.174094   -0.824001    1.198448
C      -1.129238   -0.976030    0.041916
O      -2.492729   -0.864484    0.230355
C      -0.471803   -1.769093   -1.070566
C      -0.534928   -3.221826   -1.319963
N      -1.185317   -2.257685   -2.244349
C       0.679241   -0.741782   -1.160506
H       0.617923    1.770535    0.569123
H       0.536173   -1.605275    1.461538
H      -0.621968   -0.299468    2.037556
H      -2.841799   -0.265167   -0.439369
H       0.317422   -3.745183   -1.744742
H      -1.165557   -3.825612   -0.671918
H      -2.186189   -2.240316   -2.050155
H       0.648852   -0.203818   -2.111006
H       1.693232   -1.109772   -0.972111
