20

C       0.371738    1.467760    0.284077
C      -0.146172    0.080031   -0.115716
C       0.481815   -0.449624   -1.368686
C       0.749587   -1.843456   -1.759019
C       0.304981   -2.058492   -3.197516
O      -0.054241   -0.757129   -3.679347
C       0.563853    0.164685   -2.795350
C       2.087342   -0.078591   -2.698082
N       1.913128   -0.939482   -1.476721
H       1.454681    1.444513    0.439387
H       0.156551    2.212698   -0.489406
H      -0.097205    1.808497    1.211793
H       0.046774   -0.632018    0.695398
H      -1.235636    0.110079   -0.251392
H       0.662850   -2.654222   -1.044228
H       1.095396   -2.497048   -3.822229
H      -0.572479   -2.712816   -3.251602
H       0.185122    1.163977   -3.007124
H       2.567415   -0.558500   -3.557548
H       2.655071    0.810741   -2.413502
