21

C       0.022310    1.529438    0.020621
C      -0.025115    0.019271    0.003102
C       0.447332   -0.721972   -1.280740
C      -0.697582   -1.758108   -1.140826
C      -0.426638   -2.812598   -0.038192
C      -0.756145   -1.782047    1.071105
C       0.379170   -0.749833    1.293816
C      -1.348666   -0.825385   -0.041072
O      -2.580919   -0.202953   -0.066914
H       1.059678    1.885869    0.051268
H      -0.450093    1.954024   -0.871654
H      -0.495796    1.935012    0.896216
H       0.298675   -0.091464   -2.163276
H       1.473529   -1.104657   -1.294544
H      -1.195441   -2.087831   -2.053879
H      -1.175788   -3.610544   -0.066658
H       0.567248   -3.271736   -0.016835
H      -1.301440   -2.131148    1.949193
H       1.403413   -1.133327    1.353634
H       0.183651   -0.138490    2.180687
H      -3.270215   -0.876166   -0.091200
