21

C       1.112727    0.313678    1.144435
C       0.078821    0.258228    0.014100
C       0.604002   -0.453989   -1.228663
C       0.963284   -1.949537   -1.233303
C      -0.256838   -2.829158   -1.472974
C      -1.650026   -2.259061   -1.257702
O      -1.681612   -1.038246   -2.006507
C      -0.352923   -0.758671   -2.432982
C       0.369380   -2.113536   -2.628534
H       1.403500   -0.692601    1.465814
H       2.023569    0.833843    0.826518
H       0.718210    0.839686    2.019324
H      -0.833488   -0.227309    0.372172
H      -0.214740    1.278361   -0.266411
H       1.470676    0.095561   -1.619922
H       1.879877   -2.384227   -0.850269
H      -0.106058   -3.897373   -1.367064
H      -2.420571   -2.935342   -1.650787
H      -1.878838   -2.062427   -0.202199
H      -0.400778   -0.032912   -3.244053
H       0.763913   -2.556927   -3.532013
