19

C      -0.186834    1.617468   -0.041998
C       0.045382    0.113925   -0.004363
C       1.109366   -0.605885   -0.891832
C       2.424451    0.110365   -0.512223
C       2.378133   -0.289096    0.986394
C       0.813727   -0.563486    1.142861
C       1.126235   -1.783599    0.173170
C       2.492861   -1.814907    0.830510
O       3.221952   -2.666905    1.249631
H       0.716091    2.190536    0.185396
H      -0.549936    1.935604   -1.026040
H      -0.945638    1.902414    0.695008
H      -0.912789   -0.404704   -0.125893
H       0.923182   -0.807635   -1.946553
H       3.304876   -0.297189   -1.018340
H       2.394832    1.185930   -0.695338
H       2.962583    0.268314    1.714052
H       0.432523   -0.700061    2.153276
H       0.474448   -2.642724    0.035537
