19

C      -0.129527    1.555648    0.080099
C       0.126079    0.086592   -0.005997
O      -0.756980   -0.803874    0.683019
C       0.641516   -0.906852    0.964801
C       1.310382   -1.728207   -0.183673
C       2.763101   -2.079344   -0.010980
O       0.499731   -2.794181   -0.717970
C      -0.088180   -1.914157   -1.710653
C       0.728512   -0.708739   -1.199783
H       0.752981    2.123479   -0.232011
H      -0.961925    1.844246   -0.572015
H      -0.385951    1.837814    1.104671
H       0.941638   -0.815516    2.004890
H       2.867872   -2.885689    0.723875
H       3.198306   -2.419246   -0.954776
H       3.333322   -1.216186    0.349034
H       0.172169   -2.238574   -2.724884
H      -1.173988   -1.843920   -1.603532
H       1.359491   -0.154250   -1.893139
