22

C      -0.057928    1.582039    0.303881
C       0.048765    0.079390    0.097508
C       1.011486   -0.469315   -0.994128
C       1.404493   -1.614957   -0.033975
C       0.803057   -3.038903   -0.208335
C       2.120103   -3.625279    0.367407
C       2.805385   -2.262994    0.073242
C       0.830475   -0.771505    1.138082
H       0.932516    2.028616    0.450581
H      -0.518678    2.072421   -0.561307
H      -0.664794    1.822931    1.184277
H      -0.950560   -0.346188   -0.048237
H       0.587684   -0.747601   -1.964127
H       1.850194    0.216485   -1.164683
H      -0.129988   -3.262394    0.317504
H       0.675004   -3.293123   -1.265917
H       2.045378   -3.820325    1.440796
H       2.530350   -4.514486   -0.116807
H       3.321905   -2.267261   -0.892769
H       3.486065   -1.857473    0.827882
H       1.614064   -0.178319    1.624257
H       0.258401   -1.293089    1.911590
