17

C      -0.003642    1.478329    0.054744
C       0.004736   -0.023681    0.002690
N      -0.167327   -0.611884   -1.179436
C      -0.153047   -1.953414   -1.180577
C       0.025491   -2.736320   -0.052919
C       0.039921   -4.237037   -0.063500
C       0.195440   -1.991527    1.126287
O       0.377271   -2.651544    2.284359
N       0.187327   -0.669315    1.166765
H       0.942836    1.850761    0.459860
H      -0.158575    1.887512   -0.943477
H      -0.796187    1.831999    0.722143
H      -0.294060   -2.432112   -2.148667
H       0.989949   -4.629234    0.315146
H      -0.747155   -4.647746    0.578036
H      -0.109392   -4.618786   -1.077067
H       0.473043   -1.972064    2.967639
