21

C       0.006920    1.520116   -0.035894
C       0.018113    0.006928    0.010693
C       0.803911   -0.703578   -1.102147
C       0.570605   -2.189598   -0.728019
C      -0.288509   -2.003084    0.518231
C       0.236082   -0.791074    1.349976
C      -1.216564   -0.475401    1.787533
C      -1.283405   -0.815741    0.277701
O      -2.368120   -0.774665   -0.583962
H       1.028204    1.915806    0.005504
H      -0.442177    1.869445   -0.972239
H      -0.556291    1.968220    0.787035
H       0.410800   -0.449069   -2.091694
H       1.862363   -0.421886   -1.088577
H       0.039013   -2.741369   -1.509740
H       1.500121   -2.728202   -0.518472
H      -0.644433   -2.883735    1.058294
H       1.128507   -0.778062    1.973889
H      -1.678497   -1.194365    2.471511
H      -1.445422    0.548598    2.089014
H      -3.037649   -1.389976   -0.266115
