17

N      -0.039607    1.317667   -0.087246
C       0.052568   -0.049955    0.145723
O       1.101058   -0.605802    0.414127
N      -1.148099   -0.714997    0.011892
C      -1.167975   -2.143759    0.026732
C      -2.074688   -2.884516    0.964740
C      -2.398820   -2.846756   -0.528840
C      -3.493987   -2.057040   -1.005619
C      -4.381115   -1.352727   -1.414984
H       0.779288    1.814438    0.229365
H      -0.909419    1.772634    0.147421
H      -1.895432   -0.265339   -0.498763
H      -0.200356   -2.577624   -0.195766
H      -1.740678   -3.830014    1.376848
H      -2.709261   -2.291292    1.612329
H      -2.211152   -3.756917   -1.089811
H      -5.190101   -0.765311   -1.772872
