17

N      -0.008932   -1.162202   -0.123838
C      -0.003880   -0.009850   -0.035823
C       0.021588    1.449018    0.094438
C      -0.786890    1.901988    1.324221
C      -0.988302    3.419906    1.389177
N       0.170442    4.273092    1.588265
C       1.247261    4.194785    0.943839
O       1.675582    3.308874   -0.008536
C       1.491050    1.910685    0.162152
H      -0.425189    1.874117   -0.814079
H      -1.773796    1.428418    1.302777
H      -0.284148    1.550255    2.232693
H      -1.492593    3.751103    0.468610
H      -1.684755    3.629754    2.207126
H       2.003692    4.969291    1.074383
H       1.923664    1.592500    1.119316
H       2.064372    1.451048   -0.645197
