14

N       0.013310    1.332173    0.009595
C       1.244221    1.876919    0.000537
C       2.125065    0.794389   -0.014130
C       3.526788    0.603840   -0.028959
N       4.065106   -0.592019   -0.040900
C       3.235992   -1.682988   -0.038821
C       1.865691   -1.639753   -0.025116
C       1.271161   -0.357399   -0.012144
N      -0.028924   -0.014092    0.002547
H      -0.861991    1.832276    0.020961
H       1.396644    2.944092    0.004973
H       4.206207    1.454857   -0.030906
H       3.748594   -2.640621   -0.049179
H       1.265589   -2.541762   -0.024231
