16

O      -0.048540   -0.074036    0.022710
C      -0.030431    1.140772    0.036078
C      -1.323148    1.951912    0.112255
O      -1.153998    3.325016    0.416640
C      -0.153356    3.914433   -0.379222
C       1.218256    3.326617   -0.000619
N       1.121554    1.867686   -0.058536
C       2.272748    3.818182   -0.882739
C       3.134592    4.232073   -1.609945
H      -1.846817    1.821668   -0.848736
H      -1.947729    1.517485    0.895015
H      -0.339393    3.749138   -1.451606
H      -0.163276    4.987778   -0.179893
H       1.440583    3.646715    1.028558
H       1.975351    1.328733   -0.091198
H       3.899777    4.597158   -2.250244
