18

C       0.342784    1.280176    0.274943
N       0.049405   -0.134487    0.129340
C       0.049841   -0.823001   -1.048808
O       0.358379   -0.134872   -2.178863
C      -0.277510   -2.140452   -0.820284
C      -0.488582   -2.252143    0.584127
C      -0.292515   -1.015655    1.153820
C      -0.380960   -0.586682    2.574723
O       0.869238   -0.148383    3.126399
H       0.839174    1.439219    1.233250
H       1.002190    1.593290   -0.535685
H      -0.568759    1.887999    0.233149
H       0.400429   -0.760426   -2.908061
H      -0.352300   -2.918893   -1.563684
H      -0.766935   -3.146738    1.121450
H      -1.052227    0.270145    2.708381
H      -0.799985   -1.419996    3.156316
H       1.515260   -0.832210    2.916934
