13

N       0.432028    1.336146   -0.259697
C       0.018875   -0.050196   -0.025088
C       0.731271   -0.581413    1.177713
N       0.321518   -0.597112    2.410848
C       1.401515   -1.150551    3.056964
N       2.413990   -1.464310    2.281300
O       1.967711   -1.084853    1.028263
C       1.440555   -1.380886    4.464546
N       1.459699   -1.561729    5.605335
H       0.087271    1.644608   -1.162631
H       0.014752    1.942959    0.439467
H      -1.056835   -0.200274    0.143884
H       0.314140   -0.650445   -0.890606
