19

C      -0.006929    1.514036   -0.128197
C       0.049096    0.017484    0.063254
N       1.308294   -0.772936   -0.121664
C       2.478807    0.026544   -0.079332
N       3.243705    0.200328   -1.064915
O       2.671864    0.575902    1.169590
C       1.649322    0.138936    2.068510
C       0.684514   -0.676443    1.215358
C       0.094318   -1.925626    1.819432
H       0.799900    2.041620    0.384095
H       0.053061    1.761535   -1.192612
H      -0.960819    1.894613    0.251542
H      -0.788893   -0.507806   -0.390931
H       4.024521    0.799581   -0.797736
H       2.098841   -0.484832    2.849747
H       1.196031    1.016955    2.541285
H      -0.569033   -1.676649    2.655375
H      -0.486132   -2.475828    1.075213
H       0.881878   -2.587493    2.195004
