19

C      -0.663986    1.360326   -0.008984
C      -0.001994   -0.022303   -0.054084
C       1.010783   -0.204687   -1.165195
C       2.152226   -0.770409   -0.768520
C       2.139223   -1.056123    0.705456
O       2.914471   -0.112488    1.495960
C       1.725198    0.603346    1.887644
C       0.797672   -0.435179    1.199301
O      -0.041126   -1.173054    2.051535
H       0.074329    2.166260    0.045473
H      -1.266270    1.527004   -0.907854
H      -1.328083    1.441914    0.857102
H      -0.803248   -0.766990   -0.161969
H       0.790650    0.098699   -2.184492
H       3.000923   -0.994060   -1.405023
H       2.377259   -2.090443    0.980963
H       1.611954    0.651718    2.978998
H       1.704497    1.622508    1.485424
H       0.464152   -1.434254    2.829058
