19

C       0.066465    1.487296    0.046481
C      -0.006079   -0.005381   -0.015163
C      -0.052712   -0.773411   -1.109418
C      -0.036310   -2.228287   -0.792990
C       1.196959   -2.725359   -0.080519
C      -0.006640   -2.299351    0.744537
C      -0.030610   -0.847807    1.248055
C      -0.732526   -3.296127    1.470140
C      -1.347096   -4.118159    2.099111
H       0.986356    1.823543    0.541891
H       0.039298    1.932397   -0.951814
H      -0.767567    1.900816    0.628147
H      -0.061400   -0.400066   -2.127841
H      -0.626305   -2.930605   -1.370719
H       1.401587   -3.789936   -0.102893
H       2.072941   -2.084213   -0.074671
H       0.816748   -0.627639    1.910107
H      -0.938821   -0.657390    1.834342
H      -1.887550   -4.847857    2.648702
