25

C       0.346281    1.513585    0.275663
C       0.084939    0.019125    0.016773
C       0.552092   -0.812548    1.224685
C      -1.415582   -0.213159   -0.229455
C       0.843864   -0.427038   -1.241882
O       2.236485   -0.226866   -1.057027
C       3.003548   -0.628658   -2.145629
C       3.196635    0.317647   -3.304437
C       4.321065    0.051309   -2.321080
H       1.414177    1.704446    0.406020
H      -0.007126    2.126124   -0.561797
H      -0.176959    1.848465    1.177681
H       0.027995   -0.502555    2.135035
H       0.350696   -1.878797    1.069850
H       1.626060   -0.693642    1.387015
H      -1.775716    0.370415   -1.084270
H      -1.630119   -1.269288   -0.428058
H      -2.000736    0.085287    0.646618
H       0.642689   -1.492996   -1.442539
H       0.495896    0.142671   -2.118557
H       2.938230   -1.694925   -2.369132
H       3.268245   -0.088730   -4.307383
H       2.704844    1.281629   -3.236212
H       4.553243    0.838812   -1.613354
H       5.171567   -0.539735   -2.641290
