21

C       0.399743    1.475492    0.659173
O      -0.201215    0.353825    0.049964
C       0.724523   -0.503231   -0.560717
C       1.627706   -1.431353    0.322071
C       1.136391   -2.638264   -0.514247
O       0.066387   -3.347710    0.129862
C      -0.940651   -2.604053   -0.615857
C      -2.037480   -2.036700    0.261747
C       0.142317   -1.730281   -1.298380
H       1.085594    1.185826    1.468876
H       0.962999    2.077351   -0.071440
H      -0.402301    2.087080    1.078733
H       1.353263    0.072946   -1.259084
H       2.697440   -1.212903    0.274636
H       1.313237   -1.513406    1.364721
H       1.876247   -3.300972   -0.969612
H      -1.388788   -3.271762   -1.366841
H      -1.638711   -1.359867    1.016603
H      -2.760306   -1.483780   -0.347508
H      -2.565777   -2.858905    0.756084
H       0.079965   -1.659536   -2.383696
