21

C       0.033284    1.588056    0.045455
C       0.061254    0.069401   -0.039129
C       0.771698   -0.634629   -1.197443
C       1.226368   -1.779983   -0.292679
C       2.238003   -0.782685   -0.742966
C       3.433959   -0.860210   -1.628535
O       2.353305   -0.130275    0.527031
C       1.059668   -0.725486    0.867894
C       0.862143   -0.954921    2.333659
H       1.049529    1.988260    0.017337
H      -0.531412    2.015420   -0.790461
H      -0.444837    1.926738    0.971792
H      -0.940087   -0.359525    0.084112
H       0.478650   -0.687211   -2.239334
H       1.139730   -2.855922   -0.361038
H       3.199565   -1.430870   -2.532122
H       3.757079    0.141266   -1.932686
H       4.269027   -1.349560   -1.117322
H       0.890619   -0.001842    2.873015
H      -0.106944   -1.427588    2.520746
H       1.649876   -1.597925    2.736667
