17

C       0.204520    1.482676    0.080399
C      -0.061052   -0.019732   -0.046354
C       0.664091   -0.641622   -1.290175
C       1.891559   -1.223620   -0.656409
N       3.033071   -1.707173   -1.056773
O       3.678278   -2.089679    0.120268
C       2.878440   -1.818532    1.196922
C       1.727458   -1.262495    0.749778
N       0.470975   -0.784372    1.126060
H       1.280210    1.686787    0.114437
H      -0.220537    2.025216   -0.770379
H      -0.250789    1.885915    0.991621
H      -1.139802   -0.191210   -0.110351
H       0.054503   -1.428964   -1.746266
H       0.868964    0.107401   -2.058615
H       3.293153   -2.072166    2.157859
H       0.425550   -0.272659    1.997503
