17

O      -0.120132   -0.070342   -0.097346
C      -0.010988    1.127948   -0.081170
C       1.299499    1.881028   -0.106550
C       1.345384    2.899296   -1.254235
C       2.613161    3.802023   -1.210229
C       2.671302    4.664073   -2.394646
C       2.697112    5.347266   -3.381713
C       2.675234    4.588118    0.026743
C       2.708768    5.214108    1.051400
H      -0.912418    1.784777   -0.043406
H       1.390173    2.420097    0.847071
H       2.117688    1.157489   -0.171240
H       1.337593    2.384152   -2.219691
H       0.462485    3.546641   -1.225724
H       3.490009    3.137922   -1.231483
H       2.730150    5.959772   -4.248753
H       2.751235    5.779068    1.949914
