23

C       0.040489    1.581439   -0.035182
C      -0.050813    0.061352    0.139385
C      -1.467874   -0.532109    0.040895
C      -2.407737    0.040663    1.098273
C      -2.015848   -0.537940   -1.423629
C      -1.540715   -2.017630   -1.581722
C      -1.412106   -2.092041   -0.026494
C      -2.415323   -2.958421   -2.249672
C      -3.159392   -3.734328   -2.790101
H       1.084871    1.908374   -0.027476
H      -0.398319    1.905406   -0.985142
H      -0.475724    2.115790    0.767850
H       0.588292   -0.420805   -0.611878
H       0.371515   -0.217651    1.114495
H      -2.572518    1.114188    0.958259
H      -3.385771   -0.449677    1.056714
H      -2.003684   -0.105472    2.107445
H      -3.105769   -0.467509   -1.455320
H      -1.596748    0.185703   -2.127205
H      -0.549766   -2.049201   -2.045680
H      -0.515785   -2.579012    0.367168
H      -2.293856   -2.556942    0.420860
H      -3.810409   -4.420926   -3.271388
