18

O      -0.059465    1.385608    0.060907
C       0.056858    0.009075    0.051886
C       0.756734   -0.946752    1.013886
N       0.083609   -1.920162    0.051763
C      -1.145310   -0.967375   -0.060298
C      -1.084936   -1.023385   -1.574745
C      -1.812401   -1.844807   -2.583121
C      -1.851568   -0.323591   -2.644060
C       0.367563   -0.971005   -1.143277
H       0.820977    1.770589   -0.013202
H       1.850420   -1.003318    0.994048
H       0.380689   -1.015646    2.039573
H      -1.987882   -1.071066    0.625105
H      -1.233195   -2.370237   -3.335454
H      -2.712336   -2.365093   -2.271699
H      -2.776541    0.175206   -2.373660
H      -1.299031    0.168876   -3.437812
H       1.287653   -1.071662   -1.722251
