15

C       0.042972    1.525819    0.151914
O       1.456525    1.553993   -0.146313
C       1.436735    0.168670   -0.544927
C       2.495926   -0.679974    0.119266
O       2.262729   -0.895813    1.516585
C       0.974106   -0.999659    1.911948
N      -0.090253   -0.680376    1.305389
C       0.009273   -0.018080    0.022802
H      -0.184097    1.919539    1.146782
H      -0.543043    2.058885   -0.607518
H       1.518201    0.065242   -1.636361
H       2.532084   -1.657951   -0.379623
H       3.479904   -0.210151    0.044720
H       0.930118   -1.422109    2.914385
H      -0.743098   -0.422282   -0.656752
