22

C       0.045923    1.538915   -0.101574
C      -0.007210    0.015458    0.086108
C       0.806984   -0.397973    1.316342
O       2.158899   -0.021842    1.080730
C      -1.453861   -0.550603    0.082904
C      -1.457208   -2.088487    0.053470
C      -2.310125   -0.040373    1.252982
O      -2.008269   -0.075650   -1.153071
H       1.085329    1.857430   -0.201594
H      -0.509213    1.838470   -0.991154
H      -0.376785    2.066260    0.761277
H       0.487927   -0.442142   -0.780121
H       0.413575    0.105615    2.214034
H       0.736858   -1.481845    1.486930
H       2.665124   -0.214442    1.874844
H      -1.096464   -2.528426    0.987550
H      -2.478984   -2.455554   -0.101757
H      -0.837447   -2.456877   -0.769141
H      -2.376797    1.049730    1.243724
H      -3.327830   -0.441141    1.173835
H      -1.911737   -0.358011    2.221685
H      -2.912060   -0.402823   -1.211368
