15

O      -0.496687    0.384153    0.475625
C      -0.013821    1.249596   -0.218016
C       1.259029    1.973694    0.011198
C       1.494242    2.859253    1.232833
C       0.655450    2.640756    2.438293
C       0.884100    1.421193    2.925950
C       1.917034    0.701601    2.094288
N       2.290351    1.650593    1.010841
H      -0.523790    1.579753   -1.152209
H       1.689139    2.347380   -0.917316
H       1.964547    3.823122    1.052502
H      -0.031055    3.380465    2.828584
H       0.392980    0.969549    3.779073
H       2.824995    0.474482    2.667527
H       1.536458   -0.235894    1.681902
