23

C       0.737315    0.717231   -0.976691
C       0.089902   -0.615550   -0.597508
C      -1.265089   -0.451000    0.097310
O      -2.143193    0.176629   -0.826040
C      -3.171372    0.929200   -0.222624
C      -1.795024   -1.803110    0.602531
C      -1.373047   -2.183560    2.005826
C      -3.011251   -2.393800    0.021877
O      -1.719470   -2.872753   -0.354848
H       1.681659    0.557030   -1.505627
H       0.075061    1.294137   -1.626999
H       0.952610    1.324392   -0.089595
H      -0.072124   -1.235086   -1.484776
H       0.753905   -1.186209    0.062650
H      -1.142142    0.205334    0.975636
H      -3.768788    1.364951   -1.027540
H      -3.828391    0.311938    0.407970
H      -2.764498    1.742258    0.398172
H      -1.803558   -1.496985    2.742908
H      -1.701247   -3.199263    2.238821
H      -0.283354   -2.147254    2.112727
H      -3.609232   -3.080774    0.621386
H      -3.545327   -1.861934   -0.760861
