15

N      -0.263384   -1.175688    0.730903
C      -0.173701   -0.068615    0.412058
C      -0.107926    1.330205    0.011712
C       0.718989    2.239076    0.834526
O       1.183904    1.758679   -0.427009
C      -1.289628    1.815846   -0.776238
C      -1.147501    3.018203   -1.671849
C      -1.300088    1.644413   -2.275180
H       0.443737    3.291230    0.861830
H       1.246400    1.852498    1.703439
H      -2.234261    1.682090   -0.257837
H      -1.982016    3.707606   -1.723758
H      -0.166932    3.474730   -1.737548
H      -0.420074    1.205988   -2.732173
H      -2.238006    1.379493   -2.748652
