23

C       0.241589    1.639424    0.175236
C       0.010388    0.125701    0.303424
C       0.610817   -0.399085    1.615280
C      -1.501232   -0.206965    0.160022
C      -1.963551    0.175191   -1.236552
O      -2.791259    1.016061   -1.484853
C      -1.835641   -1.689078    0.431824
C      -3.319104   -2.012360    0.241705
O      -1.013277   -2.463923   -0.440322
H       1.311159    1.869913    0.204568
H      -0.162810    2.042904   -0.757894
H      -0.238835    2.179308    0.999850
H       0.531213   -0.376452   -0.521064
H       0.606018   -1.490859    1.656783
H       1.651075   -0.070741    1.709123
H       0.066153   -0.015716    2.486650
H      -2.076768    0.402024    0.867419
H      -1.462331   -0.393675   -2.050623
H      -1.572487   -1.900971    1.478917
H      -3.513832   -3.063613    0.483786
H      -3.939852   -1.399510    0.902838
H      -3.639262   -1.835018   -0.789172
H      -1.255962   -3.389349   -0.337482
