18

C       0.040614    1.522492    0.084669
C      -0.109512    0.017096    0.203955
O       0.962187   -0.473896    1.009574
C       0.932185   -1.855751    1.191094
C       2.034701   -2.441043    2.060956
C       1.889472   -2.020904    3.458499
N       1.017448   -3.143980    2.981767
C      -0.038995   -2.475289    2.238234
O      -1.217710   -2.506248    2.404252
H       1.001383    1.779242   -0.370407
H      -0.760296    1.933444   -0.536783
H      -0.009954    1.993288    1.070416
H      -1.072323   -0.249890    0.659430
H      -0.069300   -0.460790   -0.788568
H       0.832685   -2.393289    0.233604
H       2.891216   -2.991326    1.693578
H       2.630554   -2.357520    4.175190
H       1.426910   -1.065921    3.689395
