25

C      -0.083994    1.349260   -0.237938
O      -0.049830    0.042823    0.286485
C      -1.295981   -0.618756    0.225565
C      -1.622858   -1.228628   -1.170165
C      -1.045596   -2.588508   -0.676577
C      -1.137787   -2.050179    0.781888
C      -1.784362   -3.876237   -1.034309
C      -1.769191   -4.123898   -2.549015
C      -1.205048   -5.077019   -0.273670
H       0.917640    1.771615   -0.124877
H      -0.353870    1.366357   -1.304687
H      -0.801397    1.985199    0.305270
H      -2.075641    0.012938    0.676689
H      -2.702752   -1.281493   -1.346362
H      -1.149319   -0.755683   -2.034054
H       0.005628   -2.678000   -0.974398
H      -0.279572   -2.196089    1.440967
H      -2.045092   -2.391545    1.290723
H      -2.832841   -3.751356   -0.721879
H      -2.335669   -5.024289   -2.809257
H      -2.205445   -3.283645   -3.098808
H      -0.743147   -4.261885   -2.911048
H      -1.233228   -4.919259    0.809289
H      -1.764535   -5.992486   -0.493231
H      -0.160073   -5.251034   -0.557426
