13

N       0.015929    1.328393    0.167665
C       0.001646   -0.038936    0.035739
N      -1.116716   -0.678558   -0.019847
O      -1.039320   -2.071672   -0.044289
C       0.171357   -2.766247   -0.015467
N       0.171503   -4.030695    0.005109
N       1.351611   -2.038233   -0.024715
C       1.272113   -0.766931    0.003946
O       2.369128   -0.000676   -0.015625
H       0.825274    1.796369   -0.209676
H      -0.867314    1.782217   -0.016848
H      -0.786105   -4.381511    0.008414
H       3.131574   -0.599441   -0.052082
