11

O      -0.048097   -0.029895   -0.001643
C       0.023217    1.174436    0.006611
C       1.265472    1.964661   -0.000623
N       2.478082    1.394327   -0.018053
N       3.322390    2.425344   -0.019166
C       2.710203    3.639866   -0.003136
C       1.360303    3.379825    0.009465
H      -0.892846    1.808319    0.020901
H       4.312521    2.239040   -0.031392
H       3.273370    4.559238   -0.002042
H       0.554945    4.096259    0.023769
