17

N      -0.323767    1.310539    0.090780
C       0.027297   -0.111386   -0.023186
C       0.803780   -0.457988   -1.303918
O      -0.004721   -0.034727   -2.392393
C       0.811052   -0.528810    1.179994
N       2.048110   -0.249837    1.453042
C       2.274450   -0.834443    2.692542
C       1.140615   -1.447149    3.102769
O       0.190774   -1.259554    2.138832
H       0.532631    1.844502    0.221442
H      -0.709635    1.599327   -0.805105
H      -0.907218   -0.683365   -0.030940
H       1.772476    0.060712   -1.285455
H       0.998694   -1.541035   -1.345029
H       0.514940   -0.092077   -3.198682
H       3.229887   -0.770506    3.188176
H       0.845485   -2.016289    3.966979
