16

O       0.020248    1.385450   -0.310979
C       0.065216    0.026463    0.092836
C      -1.316704   -0.544907    0.244735
C      -2.303490    0.059120    1.241278
N      -3.227111   -1.036859    1.486547
C      -2.926138   -2.225984    0.875466
O      -3.511327   -3.277796    0.998473
C      -1.701556   -1.944516    0.019645
O      -1.970927   -0.935204   -0.972733
H      -0.383467    1.410206   -1.185826
H       0.633983   -0.595074   -0.612780
H       0.586947    0.013335    1.055527
H      -1.785153    0.369057    2.157687
H      -2.803114    0.936616    0.817025
H      -4.077551   -0.936625    2.016711
H      -1.035788   -2.750355   -0.269564
