18

C      -0.204938    1.621810    0.027323
C       0.037060    0.122678    0.002098
C       0.922200   -0.588784   -1.059944
C       2.287547    0.137372   -1.007619
C       2.379903    0.150640    0.511832
N       3.239927    0.605739    1.322402
O       4.309089    1.214421    0.636254
C       1.108945   -0.574252    0.893235
O       1.131443   -1.665427   -0.088743
H       0.723651    2.197921   -0.006546
H      -0.825560    1.927524   -0.821746
H      -0.735464    1.908042    0.941432
H      -0.895784   -0.438260    0.099177
H       0.544295   -0.925010   -2.025031
H       3.082135   -0.459062   -1.462683
H       2.305043    1.137159   -1.450041
H       4.883334    1.489614    1.359102
H       0.955967   -0.875829    1.927081
