17

C      -0.316495    1.429438    0.037326
N       0.000859    0.007503    0.085271
C       1.366623   -0.373865   -0.213457
C       0.847059   -0.481071    1.193022
C       1.349078    0.396690    2.213221
C       1.749305    1.120723    3.091854
C       2.199606    1.975982    4.188300
O       1.138645    2.596049    4.902781
H       0.505407    2.081560    0.366661
H      -0.578785    1.687092   -0.993261
H      -1.184939    1.625288    0.673054
H       1.498030   -1.275737   -0.805704
H       2.093873    0.414635   -0.400284
H       0.549359   -1.465718    1.546901
H       2.845841    1.388064    4.860157
H       2.814155    2.796218    3.800651
H       0.516040    1.904257    5.149782
