16

C       0.155741    1.291960    0.173902
O      -0.182352   -0.035860   -0.201973
C       0.538195   -0.503277   -1.268331
C       0.391089   -0.167818   -2.757284
C       1.298386   -1.410648   -2.961113
O       2.591499   -0.999951   -2.426096
C       1.975823   -1.066153   -1.140358
C       0.849318   -1.959971   -1.554873
H       1.220146    1.375659    0.430794
H      -0.068454    2.007161   -0.628998
H      -0.449727    1.537319    1.048673
H      -0.630057   -0.351545   -3.100959
H       0.774627    0.780215   -3.146472
H       1.361661   -1.948071   -3.904069
H       2.581311   -1.025470   -0.244629
H       0.450213   -2.895266   -1.189046
