17

C      -0.003500    1.624465    0.125002
C       0.016737    0.112378    0.003878
C       1.065820   -0.563905   -0.965046
C       1.653846   -1.282355    0.255237
O       2.044827   -0.267178    1.191584
C       0.676012   -0.668127    1.162407
O      -1.310699   -0.427836   -0.146746
C      -1.957787   -0.229085   -1.310915
O      -3.075386   -0.609437   -1.495590
H       0.990963    1.975369    0.409674
H      -0.279815    2.102923   -0.819854
H      -0.722780    1.932604    0.889843
H       0.582502   -1.244969   -1.668148
H       1.749426    0.101903   -1.496547
H       2.168776   -2.233347    0.309835
H       0.211193   -1.011124    2.078878
H      -1.353363    0.306145   -2.065896
