20

C       0.267302    0.278194   -1.012372
O       1.315729    0.407791   -0.064550
C       1.453379   -0.469100    1.000725
C       0.275427   -0.935431    1.912021
N      -0.158465   -1.838041    0.768264
C       1.349935   -2.022154    0.874405
C       1.219927   -2.088382    2.429605
C       2.379308   -1.847862    3.389172
O       0.549011   -3.277543    2.817585
H      -0.722081    0.368729   -0.553589
H       0.420032    1.100168   -1.718543
H       0.304969   -0.675742   -1.547167
H       2.333412   -0.102735    1.525633
H      -0.438362   -0.333332    2.479296
H      -0.602338   -2.665614    1.170273
H       1.898435   -2.702610    0.220466
H       2.980429   -0.969232    3.153269
H       1.995508   -1.713819    4.408679
H       3.034522   -2.724092    3.395848
H       0.264361   -3.173343    3.731616
