23

C      -0.045000    1.543910    0.091157
C      -0.027981    0.014688   -0.002692
C       0.716245   -0.525118   -1.230236
C       2.228708   -0.173962   -1.275485
C       2.884205   -1.276455   -2.135140
C       2.008783   -2.504776   -1.922892
O       2.030291   -3.503865   -2.899762
C       1.638678   -2.862586   -0.504887
C       0.691343   -2.043226   -1.371473
H       0.966337    1.954361    0.179532
H      -0.505133    1.989399   -0.798341
H      -0.614773    1.880697    0.962857
H       0.426717   -0.407106    0.903536
H      -1.060515   -0.357024   -0.023941
H       0.237781   -0.107900   -2.128851
H       2.415341    0.826729   -1.672868
H       2.640775   -0.188562   -0.259582
H       2.841393   -1.020222   -3.200292
H       3.938101   -1.438869   -1.879205
H       2.831396   -4.023869   -2.773929
H       1.347581   -3.894721   -0.343223
H       2.155075   -2.402788    0.332041
H      -0.225354   -2.527218   -1.690437
