16

C       0.075044    1.119856   -0.823434
C      -0.094052    0.106598    0.286809
O       0.710855   -0.038123    1.182763
C      -1.303662   -0.758882    0.238227
C      -1.820149   -1.487681    1.450285
C      -1.271732   -2.308844    0.321921
N      -2.208285   -2.754624   -0.673834
C      -2.707189   -1.706936   -1.192365
O      -2.254077   -0.488650   -0.783585
H       1.005978    1.666361   -0.671634
H       0.085453    0.619868   -1.797642
H      -0.772620    1.812768   -0.839288
H      -1.184168   -1.384224    2.321525
H      -2.891118   -1.491736    1.621942
H      -0.356246   -2.873894    0.445777
H      -3.474975   -1.672248   -1.955002
