18

N       0.198828    1.335192    0.199637
C      -0.047588   -0.114424    0.024883
C      -1.529785   -0.400868    0.126812
C      -2.438481    0.070229   -0.722485
C      -2.065465    0.849432   -1.958421
C      -1.183147    0.029243   -2.895042
O       0.179746   -0.196296   -2.498806
C       0.668969   -0.512875   -1.282316
O       1.764282   -1.009476   -1.224162
H      -0.247548    1.641544    1.059043
H       1.197649    1.490213    0.312098
H       0.473496   -0.721711    0.775471
H      -1.840778   -0.992348    0.983081
H      -3.490549   -0.142844   -0.551880
H      -2.962302    1.123978   -2.523510
H      -1.543929    1.772931   -1.687982
H      -1.642219   -0.949813   -3.080962
H      -1.082162    0.541823   -3.855860
