20

C      -0.182653    1.532906    0.003138
C       0.031323    0.028531   -0.027305
C      -1.158076   -0.844223    0.441661
O      -0.361976   -1.487245    1.456628
C       0.786657   -0.657944    1.155590
C       1.940621   -1.459021    0.563382
C       1.467573   -1.776877   -0.868580
C       0.727782   -0.493907   -1.300045
H       0.766575    2.069176   -0.107829
H      -0.838908    1.855120   -0.814085
H      -0.642679    1.853322    0.943796
H      -1.996465   -0.282731    0.875933
H      -1.553591   -1.562565   -0.288709
H       1.063953   -0.036531    2.015291
H       2.839601   -0.829096    0.542079
H       2.168621   -2.347570    1.159099
H       2.285104   -2.042230   -1.544027
H       0.775669   -2.625376   -0.845102
H       0.022891   -0.660446   -2.121654
H       1.452120    0.254687   -1.645631
