21

C       0.354238    1.704323   -0.156194
C       0.007627    0.226318    0.057377
C       0.575819   -0.662885   -1.059685
O       1.941056   -0.880448   -0.712834
C       2.036352   -0.953812    0.706533
C       0.719875   -0.398411    1.257756
C       0.607407    0.134582    2.666911
C      -0.049432   -1.171651    2.291620
O      -1.438271   -1.232468    2.146730
H       1.429152    1.834244   -0.317776
H      -0.167679    2.100849   -1.033525
H       0.065764    2.312587    0.706526
H      -1.073579    0.101759    0.151841
H       0.028407   -1.617407   -1.112971
H       0.556954   -0.195255   -2.048563
H       2.200900   -1.992936    1.031587
H       2.906124   -0.361975    1.018016
H       1.485131    0.114990    3.306382
H      -0.051129    0.983130    2.826153
H       0.409636   -2.090843    2.660350
H      -1.834789   -1.152121    3.020329
