27

C      -0.904363    1.754616   -0.995570
C      -0.479823    0.342234   -0.569600
C       0.209651    0.374501    0.800908
C      -1.697526   -0.606204   -0.601183
C      -1.419117   -2.078192   -0.316169
C      -0.379604   -2.718792   -1.221828
C      -1.497827   -2.589119    1.109071
C      -2.564643   -2.979984    0.113628
C      -3.999260   -2.521713    0.269914
H      -0.047006    2.435531   -1.021519
H      -1.362041    1.752675   -1.990680
H      -1.637243    2.172098   -0.294202
H       0.251488   -0.015826   -1.306500
H       0.567921   -0.613894    1.100116
H       1.067035    1.056067    0.790338
H      -0.481455    0.725907    1.577054
H      -2.440031   -0.226088    0.110443
H      -2.163455   -0.526697   -1.594275
H       0.613185   -2.275027   -1.088310
H      -0.287360   -3.789781   -1.016055
H      -0.652668   -2.605821   -2.278393
H      -0.782281   -3.337305    1.436095
H      -1.778120   -1.882639    1.884558
H      -2.484858   -3.996754   -0.265650
H      -4.072249   -1.531374    0.727067
H      -4.516754   -2.480524   -0.695570
H      -4.553894   -3.215417    0.911882
