19

C       0.078302    1.591235    0.088876
C       0.059955    0.058750    0.076165
C       0.641989   -0.519135   -1.211130
C       2.182489   -0.496828   -1.332847
O       2.259920   -1.933153   -1.257586
C       0.818706   -2.062215   -1.321913
C       0.272277   -2.992349   -0.257000
H       1.097794    1.979051   -0.014757
H      -0.515669    2.000178   -0.736065
H      -0.331695    1.985705    1.023498
H       0.622359   -0.319304    0.938708
H      -0.971297   -0.294889    0.201772
H       0.123220   -0.084984   -2.071414
H       2.573405   -0.113325   -2.284814
H       2.725982   -0.014506   -0.509640
H       0.519374   -2.433460   -2.313978
H       0.536761   -2.656846    0.748966
H      -0.818353   -3.066017   -0.328806
H       0.688142   -3.994964   -0.399379
