22

C      -0.186874    1.525361   -0.246380
C      -0.004142    0.010454   -0.126093
C       0.715854   -0.584258   -1.328221
O       0.842855   -1.980816   -1.141948
C       1.493347   -2.640627   -2.209549
C       1.485110   -4.130312   -1.901693
N       0.127891   -4.616838   -1.736925
C      -0.367013   -5.690795   -2.403132
O       0.258143   -6.389681   -3.173856
H       0.777513    2.039038   -0.325697
H      -0.775737    1.787736   -1.132137
H      -0.705782    1.928322    0.627830
H       0.565983   -0.233865    0.777476
H      -0.978186   -0.482331   -0.024188
H       0.156192   -0.373908   -2.255914
H       1.712882   -0.125880   -1.444210
H       0.968622   -2.445807   -3.159008
H       2.530487   -2.283337   -2.317239
H       1.936931   -4.698495   -2.717323
H       2.069510   -4.312638   -0.990768
H      -0.481546   -4.075138   -1.144703
H      -1.433549   -5.867213   -2.158304
