17

C       0.008957    1.426899    0.381377
C       0.057793   -0.006283   -0.106467
O       1.072144   -0.524537   -0.516964
C      -1.235033   -0.782112   -0.039569
O      -2.401218   -0.040557    0.180749
C      -1.328986   -2.079733   -0.797162
C      -1.225331   -2.124984    0.712276
C      -0.067476   -2.634360    1.381036
C       0.878983   -3.083946    1.970129
H       1.016614    1.842878    0.372080
H      -0.644692    2.028527   -0.259440
H      -0.418726    1.474931    1.387571
H      -2.713446    0.290808   -0.668743
H      -2.290102   -2.327201   -1.233028
H      -0.445893   -2.362523   -1.357121
H      -2.167610   -2.280418    1.229976
H       1.726822   -3.472573    2.477182
