19

C       0.130802    1.223283    0.520772
C      -0.404244   -0.084743   -0.070943
O      -1.779397   -0.015673   -0.405460
C       0.401493   -0.515931   -1.294562
O       1.744671   -0.989722   -1.089096
C       0.788673   -1.923738   -1.580589
C       0.408944   -3.097865   -0.717280
C       0.290389    0.350592   -2.512416
O      -0.584016    1.164305   -2.702939
H       1.179602    1.112809    0.813681
H       0.055396    2.041982   -0.201046
H      -0.455438    1.489499    1.403962
H      -0.322315   -0.865529    0.689905
H      -1.853248    0.638453   -1.114438
H       0.942455   -2.176960   -2.632839
H       0.324637   -2.823471    0.334782
H      -0.545826   -3.515943   -1.050932
H       1.170978   -3.878902   -0.805386
H       1.103336    0.182340   -3.251550
