20

C       0.019370    1.518890   -0.026718
C       1.317896    0.751607   -0.005489
C       0.008312    0.009103    0.034024
C      -0.458458   -0.768311    1.274875
C      -1.554592   -1.677227    0.702603
C      -2.603867   -0.829464   -0.059468
N      -1.909306   -1.045589   -1.376000
C      -1.046170   -2.083493   -0.707603
C      -0.444900   -0.810903   -1.148272
H      -0.264110    2.067051    0.866139
H      -0.280535    1.993621   -0.955237
H       1.906085    0.711180   -0.916856
H       1.910453    0.773683    0.903626
H       0.361289   -1.368564    1.689468
H      -0.833504   -0.114262    2.069762
H      -1.923151   -2.447613    1.379347
H      -3.587361   -1.302167   -0.114493
H      -2.721600    0.219018    0.236150
H      -0.877174   -3.071734   -1.119341
H       0.099310   -0.744515   -2.084767
