20

C      -0.088288    1.458554    0.018533
C       0.014676   -0.056917   -0.049205
C      -1.269094   -0.762764   -0.526003
O      -1.866104   -1.309010    0.650074
C      -0.818323   -1.771287    1.505385
C       0.329661   -0.771263    1.317376
C       1.678598   -1.227445    0.726401
N       1.367923   -2.046703   -0.469802
C       1.380431   -0.569698   -0.573044
H       0.805326    1.899231    0.474806
H      -0.200188    1.894310   -0.981440
H      -0.956354    1.756917    0.615652
H      -2.000271   -0.078326   -0.966794
H      -1.033968   -1.555074   -1.248134
H      -1.221249   -1.792441    2.521801
H      -0.502570   -2.784003    1.222428
H       0.443425   -0.072328    2.148257
H       2.620283   -1.346307    1.247907
H       2.253708   -2.385261   -0.843042
H       2.040560   -0.064229   -1.268506
