19

C       0.019746    1.569835   -0.290813
C      -0.092703    0.089967   -0.001873
C       1.064735   -0.829943   -0.203591
N       0.566864   -0.542718    1.143593
C       1.348182    0.225927    2.081115
C       2.112131   -0.592132    3.150185
O       3.352086    0.106476    2.809297
C       2.746573    0.783104    1.778066
N       3.233422    1.558180    0.918151
H       1.043152    1.933728   -0.167559
H      -0.295204    1.769210   -1.320828
H      -0.639659    2.148341    0.367094
H      -1.087372   -0.321813   -0.170960
H       0.913907   -1.849910   -0.547760
H       2.002543   -0.372027   -0.508262
H       0.711803    0.995059    2.529254
H       1.843986   -0.431374    4.196222
H       2.187495   -1.657702    2.923501
H       4.240396    1.676311    1.044848
