18

O      -0.818047    1.036743   -0.663576
C       0.107577    0.912532    0.089107
C       1.287609    1.893934    0.174921
C       1.176929    2.678695    1.414038
C       1.091068    3.270951    2.458126
N       2.522289    1.128598    0.031522
C       3.076533    0.342961    1.162892
C       4.495181    0.735674    0.686024
C       3.801098    1.859014   -0.121203
H       0.186133    0.054579    0.791624
H       1.200020    2.558590   -0.691622
H       1.008395    3.815266    3.366843
H       2.835239    0.772399    2.145378
H       2.807322   -0.717533    1.155959
H       5.205873    1.044507    1.452483
H       4.951438   -0.022302    0.047484
H       4.107306    2.021944   -1.159374
H       3.814134    2.819370    0.414985
