21

C       0.147421    1.307120   -0.306808
O       0.023337   -0.103645   -0.289695
C      -1.270914   -0.612235    0.007330
C      -1.318015   -1.989069   -0.662660
O      -0.995724   -1.903328   -2.031424
C      -1.527792   -0.731516    1.526291
C      -1.835828    0.521586    2.207242
C      -2.116799    1.548596    2.770711
C      -2.451379    2.789732    3.455303
H       1.152451    1.530452   -0.674397
H      -0.589224    1.765021   -0.983265
H       0.022577    1.741128    0.691030
H      -2.034019    0.034301   -0.450621
H      -0.634595   -2.669053   -0.125576
H      -2.328789   -2.403286   -0.588286
H      -0.202097   -1.353862   -2.064661
H      -2.360876   -1.432585    1.675190
H      -0.643794   -1.201867    1.974733
H      -3.498373    2.797607    3.778082
H      -1.829880    2.933533    4.346114
H      -2.300646    3.658256    2.804330
