15

F       0.128362    0.089510   -0.183856
C       0.009024    1.407452   -0.011844
F       1.247652    1.934418   -0.032368
F      -0.647799    1.890483   -1.085559
C      -0.711337    1.790434    1.262883
C      -2.004290    1.005903    1.683791
C      -1.333541    0.735772    3.038600
N      -0.119388   -0.053964    2.738961
C      -0.082271    1.422375    2.612207
H      -0.904903    2.863644    1.204220
H      -2.880813    1.652841    1.736061
H      -2.232199    0.111186    1.102177
H      -1.803296    0.693610    4.012585
H       0.324190   -0.278315    3.629419
H       0.626065    2.014452    3.176988
