18

C       0.045734    1.434625    0.068431
N      -0.115481   -0.011365    0.092525
C       0.579257   -0.723183    1.061379
N       1.184189   -0.113266    2.073386
N       1.672912   -1.148471    2.829175
C       1.392139   -2.350178    2.289211
O       1.814059   -3.466917    2.925059
C       0.673302   -2.145985    1.128767
C       0.099198   -3.159277    0.190665
H       1.087764    1.756446   -0.074940
H      -0.570930    1.845334   -0.735053
H      -0.295608    1.850208    1.019558
H      -0.056810   -0.437860   -0.820957
H       2.185898   -0.961586    3.671497
H       1.546620   -4.232295    2.406100
H      -0.948539   -2.936542   -0.043492
H       0.639573   -3.218025   -0.764073
H       0.115424   -4.167802    0.622358
