22

C       0.019340    1.539310   -0.130669
C       0.001374    0.028748    0.015190
C      -1.208373   -0.625820   -0.627576
C       1.313214   -0.722095   -0.043900
C       0.552308   -0.630604    1.263946
C       1.109137    0.126977    2.450603
C       2.061782   -0.726875    3.281576
O       2.521992    0.063570    4.368229
H       0.917595    1.990150    0.297807
H      -0.015304    1.820590   -1.189890
H      -0.849537    1.996083    0.358472
H      -1.251646   -0.405811   -1.701195
H      -1.184759   -1.714038   -0.512016
H      -2.140664   -0.262518   -0.178369
H       1.348989   -1.673286   -0.565488
H       2.224047   -0.136560   -0.131211
H       0.025977   -1.540550    1.549079
H       1.651198    1.022374    2.129796
H       0.297189    0.470956    3.103798
H       1.536763   -1.628261    3.638992
H       2.897803   -1.067233    2.649986
H       3.127702   -0.468853    4.891692
