16

C       0.081236    1.514456    0.058789
C      -0.082584    0.036039    0.065305
C      -1.131963   -0.815151   -0.056260
C      -2.606075   -0.974102   -0.237843
O      -2.792527   -2.395448   -0.382576
C      -1.608707   -3.142066   -0.064970
C      -0.545475   -2.094889    0.044455
N       0.746251   -2.070175    0.212123
O       1.049449   -0.697162    0.225776
H       0.769734    1.827985   -0.732519
H      -0.882162    2.000667   -0.105471
H       0.491159    1.867942    1.010657
H      -3.183073   -0.609292    0.624818
H      -3.002215   -0.485985   -1.136577
H      -1.741581   -3.692706    0.877213
H      -1.424283   -3.870206   -0.862752
