21

C       0.134414    1.592695    0.008379
C       0.019343    0.065414    0.003968
C       0.662703   -0.608585   -1.217484
N       2.106943   -0.355301   -1.383075
C       1.654913   -1.618441   -0.764715
C       1.661052   -1.639697    0.758753
C       1.905689   -2.951963    1.457175
N       2.127776   -0.371120    1.359447
C       0.676858   -0.617705    1.211131
H       1.187968    1.878935    0.005526
H      -0.348335    2.027471   -0.873326
H      -0.342136    2.021747    0.896180
H      -1.040696   -0.222178    0.008447
H       0.057714   -0.752417   -2.108546
H       2.362939   -0.538578   -2.351091
H       1.815136   -2.553663   -1.292075
H       2.945797   -3.277917    1.337936
H       1.699706   -2.870621    2.529590
H       1.262488   -3.742718    1.054188
H       2.390770   -0.548779    2.327511
H       0.085254   -0.757223    2.112751
