17

O       0.274832    1.133228   -0.669282
C       0.034071    0.031092    0.194371
C      -1.394621   -0.466894    0.153237
C      -2.032530   -0.934915    1.304505
C      -3.333980   -1.420330    1.265421
C      -4.029816   -1.434665    0.056090
O      -5.306056   -1.913559    0.066538
C      -3.411182   -0.960457   -1.102688
C      -2.105763   -0.484742   -1.049075
H      -0.356591    1.822404   -0.436183
H       0.724738   -0.749104   -0.148776
H       0.312127    0.264423    1.234253
H      -1.502597   -0.920014    2.253007
H      -3.828805   -1.781970    2.159488
H      -5.666022   -1.868322   -0.825296
H      -3.952395   -0.965265   -2.045716
H      -1.628033   -0.111308   -1.948545
