15

O       0.182055    1.311775    0.363129
C      -0.004368   -0.037522    0.027605
C      -1.476889   -0.461438   -0.089905
C      -1.486903   -1.363046   -1.295943
C      -0.340252   -1.332468   -2.009562
C      -0.040731   -2.013395   -3.211081
C       0.252525   -2.582623   -4.230341
C       0.589425   -0.368418   -1.349215
O       1.596367    0.137160   -1.782353
H       0.998800    1.582297   -0.081175
H       0.499865   -0.702015    0.752166
H      -1.866035   -0.960054    0.803400
H      -2.099959    0.425853   -0.258602
H      -2.350824   -1.960066   -1.565790
H       0.509026   -3.082483   -5.131609
