13

O      -0.019978    1.382223   -0.046649
C      -0.061144    0.015100    0.007491
C      -0.460867   -0.747230    1.190727
O      -1.438378    0.015867    1.929352
C      -2.379826   -0.124000    0.881260
O      -3.504351    0.233646    0.894226
C      -1.410511   -0.825546   -0.025517
C      -1.652538   -1.871288   -1.031315
O      -2.740581   -2.191895   -1.436131
H      -0.435888    1.728329    0.755306
H       0.686121   -0.438420   -0.638959
H       0.052728   -1.542151    1.715310
H      -0.721866   -2.354274   -1.408985
