14

O      -0.063666   -0.023040   -0.113940
C      -0.034559    1.162742   -0.024532
O      -1.152884    1.952258   -0.001250
C      -0.783579    3.270008    0.442774
O      -0.869515    3.341936    1.831713
C       0.304072    2.711839    2.375560
C       1.354212    2.770848    1.272465
C       0.706699    3.367219    0.087729
N       1.151576    1.976074    0.018298
H      -1.473004    3.983800   -0.002031
H       0.623338    3.283331    3.251309
H       0.075308    1.686395    2.690191
H       2.396010    2.920049    1.530507
H       1.119882    4.100124   -0.593626
