22

C       0.284865    1.410769    0.372260
C      -0.240014    0.088843   -0.201439
C       0.587204   -0.439826   -1.362820
C       0.509901    0.368043   -2.652345
C       1.316486   -0.218095   -3.828355
C       1.156658   -1.711534   -3.948040
C       0.896787   -2.476443   -2.885221
C       0.759350   -1.916684   -1.518193
N       1.848328   -1.070236   -0.944808
H       1.332155    1.303895    0.671188
H       0.219585    2.228920   -0.352307
H      -0.290924    1.708321    1.253929
H      -0.236189   -0.667498    0.590565
H      -1.282624    0.204386   -0.525692
H      -0.548729    0.417374   -2.939799
H       0.828813    1.400697   -2.473584
H       1.006409    0.273477   -4.757129
H       2.381320    0.034914   -3.716021
H       1.277790   -2.160392   -4.929707
H       0.785651   -3.551674   -2.993242
H       0.305799   -2.572138   -0.779065
H       2.570792   -0.949274   -1.651361
