21

C      -0.001886    1.511622    0.281528
C      -0.059927    0.025660   -0.117534
C      -1.442456   -0.536640   -0.097132
C      -2.225437   -1.019520   -1.067066
C      -3.516913   -1.418063   -0.323574
O      -4.607179   -1.908662   -1.035286
C      -3.712039   -0.176362    0.594887
C      -2.336350   -0.682944    1.153383
C      -2.902519   -2.127947    0.940041
H       1.030495    1.874682    0.281172
H      -0.580651    2.124836   -0.415944
H      -0.411974    1.670018    1.284114
H       0.368922   -0.103973   -1.117877
H       0.577812   -0.546783    0.571448
H      -2.046327   -1.119394   -2.129683
H      -4.308987   -2.649327   -1.573847
H      -3.735411    0.804066    0.114527
H      -4.538712   -0.293681    1.302313
H      -1.948603   -0.354230    2.116151
H      -3.658387   -2.414649    1.677865
H      -2.181560   -2.932369    0.773501
