23

C      -0.323452    1.492918    0.049253
C       0.008780    0.015959    0.092374
C       1.314874   -0.615537   -0.337742
C       2.584584    0.224820   -0.437768
C       2.772289    0.910009    0.942727
C       1.881746    0.132527    1.923220
C       2.473893   -0.484526    3.168723
C       1.540702    0.697486    3.279404
C       0.890246   -0.670004    1.117738
H       0.515418    2.132956    0.325504
H      -0.643503    1.786164   -0.957267
H      -1.146990    1.722357    0.734823
H      -0.848317   -0.597990   -0.180059
H       1.257480   -1.497211   -0.967928
H       3.426591   -0.443969   -0.646979
H       2.553718    0.954874   -1.254218
H       3.820786    0.903832    1.256863
H       2.473310    1.961839    0.898562
H       2.108775   -1.456339    3.486263
H       3.529210   -0.321834    3.364218
H       1.964727    1.658426    3.554501
H       0.542927    0.525472    3.669737
H       0.520573   -1.588084    1.564231
