21

C       0.088239    1.522695    0.013732
C       0.070698    0.012420    0.022428
C      -0.829838   -0.714034    0.996522
C       0.669507   -0.798861    1.161587
C       1.323486   -2.016145    0.582006
C       2.512727   -1.773905   -0.332544
C       1.133161   -1.977729   -0.911965
O       0.850928   -3.170621   -1.582983
C       0.340681   -0.725029   -1.296516
H       1.036202    1.908329   -0.380583
H      -0.717234    1.926974   -0.611272
H      -0.043537    1.927941    1.022193
H      -1.380664   -0.108022    1.708750
H      -1.357197   -1.601917    0.660160
H       1.132181   -0.296240    2.006310
H       1.269149   -2.967047    1.102094
H       2.962648   -0.785681   -0.357442
H       3.205211   -2.600152   -0.451996
H       1.283190   -3.136722   -2.443254
H      -0.586636   -1.023524   -1.799152
H       0.897608   -0.084882   -1.993358
