20

O       0.598699    1.103675   -0.322101
C       0.277456   -0.230181   -0.015390
C      -0.134429   -0.621289    1.437397
C      -1.413308    0.240331    1.231718
C      -1.238658   -0.566961   -0.102441
C      -0.907010   -1.802919    0.790656
C      -2.085137   -0.525373   -1.329238
C      -3.440748    0.082039   -1.291780
N      -2.344314    0.763060   -1.996892
H       1.526219    1.251549   -0.114644
H       0.950844   -0.933993   -0.523417
H       0.500551   -0.656907    2.323249
H      -2.278364   -0.028846    1.843493
H      -1.267671    1.318904    1.178500
H      -0.313135   -2.598386    0.329669
H      -1.738168   -2.208467    1.371240
H      -1.905567   -1.341244   -2.028271
H      -4.228275   -0.302986   -1.933706
H      -3.784977    0.484682   -0.342647
H      -1.969711    1.516505   -1.424590
