19

C      -1.500930   -0.229107    0.045073
C       0.023139   -0.131778    0.114157
C       0.734480   -0.609541   -1.175622
C       2.241203   -0.293556   -1.151248
O       2.373631    1.115778   -1.089283
C       0.523671   -2.030858   -1.419735
C       0.380826   -3.216888   -1.606018
C       0.167790   -4.622287   -1.831147
O       1.047769   -5.426296   -2.040819
H      -1.900384    0.385012   -0.769637
H      -1.828081   -1.259960   -0.122223
H      -1.954488    0.120528    0.977163
H       0.333475    0.902953    0.281876
H       0.401017   -0.721365    0.958229
H       0.308613   -0.052885   -2.023341
H       2.700161   -0.786359   -0.280575
H       2.712086   -0.704868   -2.055329
H       3.308258    1.330414   -1.021153
H      -0.897504   -4.929999   -1.797955
