13

N      -0.026590    1.387349   -0.082960
C      -0.009845   -0.000340   -0.037636
C      -1.184862   -0.764182   -0.078160
N      -1.155502   -2.095076   -0.090712
C       0.036191   -2.677256   -0.071066
O       0.099473   -4.028996   -0.087284
C       1.214240   -1.927239   -0.029671
N       1.187121   -0.599332   -0.007920
H       0.844834    1.799685    0.218575
H      -0.835321    1.830990    0.325763
H      -2.163141   -0.289959   -0.101009
H      -0.814780   -4.341512   -0.115125
H       2.182603   -2.418029   -0.007646
