16

C      -0.086679    1.547637    0.007886
C      -0.037608    0.028842   -0.017109
C       1.233501   -0.643807   -0.604927
O       1.985911   -0.231990    0.609110
C       0.673354   -0.690461    1.177726
C       0.449962   -0.591306    2.649264
C       0.894718   -1.902509    0.229831
O       0.930526   -3.088985    0.214742
H       0.878141    1.961054    0.307638
H      -0.343125    1.941202   -0.980710
H      -0.850454    1.897628    0.710236
H      -0.988728   -0.418916   -0.327073
H       1.720205   -0.507724   -1.568144
H       0.446271    0.451918    2.979446
H      -0.514162   -1.040112    2.907667
H       1.234402   -1.127575    3.190496
