21

C      -0.050647    1.514899   -0.033733
C      -0.056324   -0.019489    0.023623
C      -1.502485   -0.539584    0.111310
O       0.576936   -0.397767   -1.209785
C       0.456131   -1.717851   -1.683009
C       1.118146   -2.790487   -0.872152
C       1.544884   -2.724850    0.396886
C       1.419653   -1.628579    1.351014
C       0.736673   -0.482714    1.227050
H       0.973305    1.880721   -0.147243
H      -0.636901    1.859191   -0.889582
H      -0.476400    1.941176    0.879238
H      -2.063970   -0.244824   -0.782288
H      -1.535857   -1.626999    0.212839
H      -1.999797   -0.112889    0.987056
H      -0.597777   -1.993225   -1.865589
H       0.927133   -1.694174   -2.674932
H       1.271190   -3.720849   -1.417099
H       2.037690   -3.609993    0.793308
H       1.927722   -1.796713    2.298212
H       0.736589    0.204152    2.070493
