20

C       0.317109   -0.428643    1.581774
C      -0.055403   -0.123381    0.127593
C      -1.418996   -0.691552   -0.300192
C      -1.821274   -0.229290   -1.724464
C      -1.973697    1.219026   -1.832598
N      -2.090200    2.367176   -1.897547
C      -1.434816   -2.206852   -0.275390
C      -2.076611   -2.979305    0.795269
O      -2.707169   -2.826561   -0.477675
H       1.276926    0.028467    1.839002
H      -0.434666   -0.031697    2.272669
H       0.402399   -1.504265    1.764201
H      -0.068485    0.961457   -0.024148
H       0.720800   -0.515724   -0.544151
H      -2.190818   -0.333769    0.392270
H      -1.069527   -0.555684   -2.453917
H      -2.766919   -0.705995   -2.002162
H      -0.620901   -2.684010   -0.827587
H      -1.725993   -3.984131    1.025656
H      -2.555799   -2.453575    1.619806
