16

O      -0.011806    1.434931    0.006592
C       0.008836    0.015972    0.002176
C      -1.394989   -0.502023    0.012219
C      -2.470818    0.317945    0.023161
N      -3.741212   -0.186585    0.032097
N      -4.031897   -1.496765    0.031051
C      -3.023739   -2.312835    0.020673
C      -1.607055   -1.941683    0.010053
N      -0.604285   -2.757703   -0.000382
H       0.897442    1.744765    0.001132
H       0.526841   -0.388086   -0.881810
H       0.541366   -0.393435    0.874979
H      -2.381646    1.396202    0.025378
H      -4.544948    0.417973    0.040380
H      -3.284912   -3.368841    0.020057
H      -0.933523   -3.725660   -0.000282
