23

C      -0.029092    1.596874   -0.034505
C       0.082719    0.070313   -0.023597
C       0.808747   -0.538590   -1.219595
C       2.321049   -0.524866   -1.222964
C       1.574876   -1.746189   -0.738974
C       1.333490   -1.900193    0.761217
C       2.516885   -2.439277    1.567267
C       0.808016   -0.516778    1.223220
O       1.915125    0.273510    1.655620
H       0.959262    2.064933   -0.071520
H      -0.586779    1.938264   -0.912180
H      -0.558027    1.971272    0.851024
H      -0.935130   -0.345444   -0.014539
H       0.293439   -0.542283   -2.174875
H       2.804641   -0.601474   -2.191356
H       2.844593    0.089321   -0.500931
H       1.628527   -2.651324   -1.335332
H       0.492814   -2.598968    0.876962
H       3.381260   -1.777358    1.485572
H       2.265478   -2.532646    2.628961
H       2.805794   -3.430490    1.202267
H       0.103766   -0.630977    2.060316
H       1.573135    1.120904    1.955386
