20

C      -0.111203    1.503964   -0.323339
C      -0.036263    0.029521    0.081591
C      -1.405388   -0.658591    0.086440
C      -1.317412   -2.134284    0.492843
N      -2.612247   -2.797698    0.512085
C      -2.988270   -3.714081   -0.421997
O      -2.296902   -4.111504   -1.335788
C      -4.422737   -4.223005   -0.193318
O      -4.941732   -5.037454   -0.900242
H       0.879691    1.967901   -0.319051
H      -0.527783    1.616727   -1.330095
H      -0.748127    2.072078    0.363730
H       0.633485   -0.506416   -0.603129
H       0.416880   -0.055263    1.078305
H      -2.080289   -0.129087    0.773639
H      -1.861343   -0.593545   -0.909045
H      -0.703280   -2.692148   -0.218296
H      -0.853581   -2.226590    1.482920
H      -3.284624   -2.513933    1.207830
H      -4.956994   -3.779954    0.682365
