19

C       0.148169    1.505312    0.025131
C      -0.003573   -0.031829    0.007012
C       0.669176   -0.642087    1.246909
C      -1.503771   -0.399337   -0.015986
C       0.638335   -0.561400   -1.250200
N       1.642560   -1.432137   -1.292900
N       1.821799   -1.559035   -2.602098
N       1.003323   -0.832278   -3.346760
N       0.242936   -0.190771   -2.501727
H       1.202918    1.796563    0.056868
H      -0.302052    1.952876   -0.864531
H      -0.345336    1.919482    0.910339
H       0.195599   -0.251015    2.152857
H       0.577598   -1.731716    1.255058
H       1.734386   -0.397736    1.283939
H      -1.991467    0.004960   -0.906609
H      -1.643304   -1.485083   -0.013877
H      -2.002474    0.008919    0.869056
H       2.525265   -2.160825   -3.003216
