17

C      -0.108602    1.547076    0.017373
C       0.073580    0.063313    0.022402
N      -0.808341   -0.879775    0.747195
C       0.654309   -0.866569    1.018240
C       1.376517   -1.661404   -0.137804
C       2.683954   -2.372777   -0.039810
O       0.380222   -2.130274   -1.048973
C       0.779322   -0.759559   -1.125237
H       0.795964    2.054039   -0.337556
H      -0.935147    1.844186   -0.639138
H      -0.326221    1.920808    1.023790
H      -1.240255   -0.343413    1.501988
H       1.054820   -0.671338    2.005316
H       2.580602   -3.297449    0.539531
H       3.052421   -2.631647   -1.035944
H       3.430782   -1.745882    0.459131
H       1.137468   -0.381415   -2.076745
