20

C      -0.088478    1.585466    0.021539
C       0.008786    0.052900    0.014039
C       0.737396   -0.515671   -1.192351
C       1.744066   -1.331623   -0.864911
C       2.686606   -2.041387   -1.789274
O       2.518445   -1.706810   -3.154015
C       1.875092   -1.405385    0.625830
N       2.228800   -0.080688    1.217276
C       0.816566   -0.525311    1.180316
H       0.911756    2.024295    0.056393
H      -0.600252    1.951506   -0.874432
H      -0.650237    1.937746    0.893180
H      -1.011134   -0.357977    0.053834
H       0.464658   -0.250340   -2.207799
H       3.723544   -1.863618   -1.454116
H       2.531352   -3.127153   -1.727202
H       2.659166   -0.757117   -3.231641
H       2.220941   -2.307136    1.121746
H       2.580105   -0.230711    2.162145
H       0.321186   -0.744338    2.120444
