19

C       0.448944    1.419974   -0.043180
C      -0.118537    0.021323   -0.038746
O      -0.632712   -0.475766    0.935707
C      -0.043262   -0.823028   -1.338241
C       0.790408   -2.076661   -1.044241
C      -1.475967   -1.157358   -1.772613
O       0.615010    0.022697   -2.319333
C       0.833997   -0.427114   -3.567686
O       1.372773    0.243285   -4.398282
H       1.509824    1.400549   -0.311069
H      -0.041243    2.028341   -0.809483
H       0.311258    1.862992    0.943318
H       0.368270   -2.584005   -0.174491
H       0.784221   -2.769679   -1.889885
H       1.827089   -1.806592   -0.823252
H      -2.014063   -0.248542   -2.057197
H      -1.487062   -1.847942   -2.620199
H      -1.997639   -1.624791   -0.935095
H       0.474620   -1.454785   -3.745595
