18

C      -0.059340    1.536004    0.056669
C       0.127287    0.052236    0.014430
N      -0.779963   -0.877420    0.728036
C       0.682342   -0.918743    1.000436
C       1.327474   -1.766448   -0.118736
C       0.731658   -0.760679   -1.167258
C      -0.137998   -1.885188   -1.798507
C       0.430194   -2.865669   -0.745245
O       0.296325   -4.035731   -0.546756
H       0.841519    2.056210   -0.285995
H      -0.890047    1.847513   -0.588059
H      -0.278096    1.877492    1.074549
H      -1.212371   -0.356553    1.490368
H       1.056344   -0.777451    2.007363
H       2.394769   -1.965135   -0.021132
H       1.389258   -0.195717   -1.825930
H      -1.221389   -1.758234   -1.769536
H       0.171037   -2.161229   -2.812226
