13

C      -0.024317    1.517077   -0.013980
C      -0.054846    0.022558    0.003313
C      -1.157919   -0.740490   -0.147227
C      -1.036032   -2.168201   -0.108304
N       0.067726   -2.813085    0.062267
O       1.209782   -2.046191    0.217970
C       1.231128   -0.657614    0.202309
O       2.292134   -0.111543    0.351246
H       0.642448    1.874565   -0.805646
H      -1.021907    1.934193   -0.166390
H       0.388827    1.899977    0.925014
H      -2.137202   -0.296722   -0.297405
H      -1.905227   -2.808004   -0.225838
