18

C       0.003907    1.578949    0.082822
C       0.048854    0.050225    0.048837
C       0.616791   -0.490273   -1.279654
C       0.663033   -1.947196   -1.335638
C       0.690360   -3.150009   -1.356835
C       0.723826   -4.613970   -1.388089
C       1.521919   -5.160725   -2.487938
C       2.172114   -5.621764   -3.385745
H       1.004148    2.009157   -0.040335
H      -0.627687    1.976000   -0.719758
H      -0.399054    1.941373    1.033249
H       0.661178   -0.328123    0.875006
H      -0.956194   -0.360442    0.196826
H       0.011525   -0.109672   -2.113558
H       1.626392   -0.085559   -1.432659
H       1.117591   -4.994507   -0.435193
H      -0.300526   -5.005744   -1.459107
H       2.748692   -6.023521   -4.181617
