16

O       0.005879    0.050934   -0.037588
C      -0.003481    1.245776   -0.006069
C      -1.196796    2.221222    0.019998
C      -0.401385    3.538247    0.054553
C       0.694516    3.288191   -1.020473
C       1.195801    2.218973    0.019312
C       0.695073    3.231840    1.114318
C       2.526016    1.668403    0.004433
N       3.600982    1.243723   -0.007057
H      -1.820526    2.097917   -0.870290
H      -1.820056    2.051111    0.902872
H      -0.965596    4.467920    0.079240
H       0.393874    2.927342   -2.006927
H       1.404897    4.111081   -1.111744
H       1.405511    4.048779    1.248504
H       0.394940    2.819447    2.080518
