16

C      -0.213399    1.337631   -0.226149
C      -0.426806   -0.160681   -0.204217
O      -1.061980   -0.724213    0.651936
C       0.256424   -0.947282   -1.341138
N      -0.390082   -2.207781   -1.611817
C      -0.206674   -3.138063   -0.784077
O      -0.819146   -4.351757   -0.886571
C      -2.019103   -4.431399   -1.561137
O      -2.498976   -5.486237   -1.826674
H       0.834812    1.582246   -0.429313
H      -0.805550    1.774784   -1.039015
H      -0.526551    1.775668    0.721957
H       0.272340   -0.340530   -2.251553
H       1.307971   -1.061709   -1.024128
H       0.468115   -3.133722    0.075300
H      -2.440600   -3.440942   -1.774285
