18

C       0.434464    1.288217    0.052797
C      -0.461658    0.111025   -0.339825
N       0.037197   -0.637127   -1.481086
C       0.709332   -1.808508   -1.341677
O       0.884142   -2.416584   -0.307795
O       1.160576   -2.226438   -2.558305
C       1.864001   -3.478110   -2.518622
C       2.326384   -3.794975   -3.860156
C       2.722729   -4.088176   -4.954853
H       1.432654    0.937079    0.329626
H       0.539162    2.001108   -0.772231
H       0.008229    1.823810    0.907113
H      -0.537167   -0.601599    0.484192
H      -1.474409    0.463729   -0.567056
H       0.039592   -0.214252   -2.395081
H       2.703566   -3.405387   -1.818791
H       1.199297   -4.261206   -2.137214
H       3.072901   -4.346310   -5.923657
