14

C      -0.019009    1.524331   -0.007633
C      -0.039737    0.015462    0.045842
O      -0.056742   -0.617098    1.094904
C      -0.032468   -0.724142   -1.204768
C      -0.033577   -2.085476   -1.406031
N      -0.126715   -3.093677   -0.507949
N       0.028385   -2.287357   -2.767498
N       0.060288   -1.168481   -3.366334
O       0.019721   -0.143043   -2.430123
H       0.868747    1.875035   -0.544718
H      -0.889176    1.897677   -0.558127
H      -0.021788    1.921338    1.007655
H       0.017947   -2.824446    0.454694
H       0.175418   -4.008387   -0.800645
