16

O      -0.190176    1.380475    0.039537
C      -0.084271   -0.007688    0.043450
C      -0.458575   -0.785945   -1.188764
C      -1.344692   -0.845296    0.050149
C      -1.056051   -1.976327    0.987650
C       0.182642   -1.889106    1.502961
C       0.898854   -0.650604    1.029033
C      -1.992000   -3.011116    1.261931
N      -2.775323   -3.838206    1.472615
H       0.480633    1.733404   -0.555106
H      -0.845139   -0.200369   -2.016119
H       0.105828   -1.670922   -1.465280
H      -2.330993   -0.400458    0.010624
H       0.624069   -2.613212    2.176419
H       1.870198   -0.883936    0.575234
H       1.094540    0.037863    1.861948
