18

C      -0.810850    1.517016    0.194909
C      -0.156385    0.149917    0.003029
C      -1.172758   -0.992281    0.150777
C       0.780593   -0.013948   -1.243582
C       1.941175   -0.548046   -0.337763
C       3.266559    0.012987   -0.490075
N       4.312571    0.491391   -0.609431
C       1.081370   -0.088337    0.888957
O       1.330223    0.082798    2.040452
H      -0.084344    2.328432    0.090844
H      -1.601422    1.669739   -0.547429
H      -1.257535    1.591200    1.190799
H      -1.957979   -0.893504   -0.605995
H      -0.707710   -1.975704    0.025190
H      -1.641688   -0.964904    1.138706
H       0.441451   -0.709765   -2.011534
H       1.035008    0.940323   -1.706950
H       1.999056   -1.641830   -0.348926
