17

C       0.040802    1.531493    0.057378
C      -0.020200    0.025692   -0.010260
C      -0.853188   -0.789350    0.929655
N       0.605170   -0.787085    1.069529
C       1.281951   -1.929203    0.429291
C       0.980545   -1.794922   -1.061052
C       0.274622   -0.678043   -1.288932
C       1.394877   -2.747916   -2.025968
N       1.758537   -3.546165   -2.783482
H       1.010831    1.903307   -0.288012
H      -0.738442    1.978917   -0.569127
H      -0.108122    1.871507    1.084772
H      -1.379534   -0.294512    1.741971
H      -1.343153   -1.676871    0.534791
H       2.360251   -1.874754    0.619978
H       0.924938   -2.877753    0.845971
H      -0.048022   -0.322427   -2.259344
