23

C       0.394092    1.550534    0.133895
C      -0.001593    0.097535   -0.034264
C       0.495402   -0.668859   -1.277552
C       1.102572   -1.663154   -0.267704
C       0.443308   -3.037067   -0.106994
C       1.379967   -3.748542    0.878528
C       2.788557   -3.363378    0.372397
C       2.613940   -1.963889   -0.281931
O       0.739219   -0.783490    0.842841
H       1.463295    1.686050   -0.057185
H      -0.168995    2.184609   -0.560136
H       0.182942    1.889033    1.153353
H      -1.082669   -0.017703    0.133033
H      -0.267687   -1.068693   -1.948593
H       1.238534   -0.120031   -1.862350
H      -0.592275   -2.956950    0.234370
H       0.444358   -3.554417   -1.076398
H       1.214895   -3.340648    1.881707
H       1.223579   -4.829417    0.928919
H       3.531743   -3.361072    1.173716
H       3.129413   -4.089571   -0.373337
H       2.989760   -1.954592   -1.310337
H       3.135549   -1.173319    0.263020
