15

O       0.000346    0.005750   -0.009067
C      -0.016240    1.187286   -0.099813
C      -1.052957    2.346090    0.043408
O      -0.026161    2.971931    0.870819
C       0.993562    2.372670    0.015452
C       0.938189    3.083059   -1.376915
C      -0.072300    4.247968   -1.293328
C      -1.054099    3.057176   -1.349701
O      -0.059116    2.330521   -2.151793
H      -2.009230    2.242251    0.555255
H       1.965831    2.293887    0.500955
H       1.895689    3.173524   -1.890030
H      -0.068798    4.896928   -0.419800
H      -0.092361    4.811697   -2.225515
H      -2.027280    3.122564   -1.836447
