18

O      -0.050452    1.356663   -0.096335
C       0.035712   -0.032104   -0.069551
C      -0.271568   -0.785997    1.217885
C      -1.232404   -0.815317    0.050073
O      -2.388443   -0.000255    0.120729
C      -3.558996   -0.799595   -0.074700
C      -3.087485   -2.054994   -0.778400
N      -2.282373   -1.759458   -1.979164
C      -1.607744   -2.054856   -0.693085
H      -0.979888    1.569419   -0.252005
H       0.824053   -0.423294   -0.708667
H       0.302938   -1.676511    1.455318
H      -0.570379   -0.179159    2.065645
H      -4.018450   -1.059750    0.890323
H      -4.268080   -0.207067   -0.660743
H      -3.679760   -2.961888   -0.722539
H      -2.248718   -2.589462   -2.567157
H      -1.024182   -2.960374   -0.573608
