16

O      -0.057373    1.400579    0.125889
C      -0.031194   -0.014667   -0.018306
C       0.690905   -0.427850   -1.307157
C       0.109481    0.278675   -2.516497
O       0.761203    0.841704   -3.355008
C       0.555805   -0.688514    1.228698
C      -0.156346   -0.234407    2.488205
O       0.398314    0.140725    3.486487
H       0.850300    1.717197    0.205591
H      -1.090481   -0.291844   -0.103180
H       1.762974   -0.208207   -1.254700
H       0.577965   -1.510797   -1.459190
H      -1.001778    0.229260   -2.585445
H       0.438368   -1.778444    1.145673
H       1.625174   -0.475157    1.334569
H      -1.268105   -0.284430    2.429377
