19

C       0.080174    1.478527    0.063127
C      -0.008379   -0.016037    0.119967
N       1.189926   -0.838560   -0.092178
C       0.454177   -1.003058    1.173925
C       1.207292   -0.794471    2.452458
O       2.125283   -1.851636    2.700680
C      -0.807543   -1.818230    0.959135
N      -1.954672   -0.914248    1.240860
C      -1.266154   -0.850604   -0.076028
H       1.029197    1.828863    0.476448
H       0.017822    1.834044   -0.972022
H      -0.741017    1.928144    0.629274
H       1.017558   -1.609125   -0.735203
H       1.719446    0.178457    2.423776
H       0.510856   -0.783821    3.296183
H       2.728077   -1.865510    1.948469
H      -0.922770   -2.895195    0.987599
H      -2.810227   -1.458760    1.111354
H      -1.805859   -1.039396   -0.997146
