18

C      -0.012450    1.581989    0.312224
C       0.047900    0.065692    0.044049
O       0.880070   -0.572198    0.978773
C      -1.359438   -0.536630    0.158143
O      -1.688845   -1.065752    1.203609
N      -2.228785   -0.423788   -0.924234
C      -1.816343    0.061305   -2.242587
C      -3.557907   -0.843774   -0.765882
O      -4.375183   -0.809616   -1.651224
H       1.005813    1.977468    0.307744
H      -0.600653    2.122867   -0.435134
H      -0.449859    1.763963    1.298363
H       0.462438   -0.114939   -0.954141
H       0.282306   -0.926549    1.655593
H      -1.036233   -0.575201   -2.667926
H      -2.699296    0.019047   -2.879334
H      -1.456497    1.090832   -2.196162
H      -3.753640   -1.196629    0.253682
