21

C       0.042037    1.631911   -0.057413
C       0.075587    0.098897   -0.028138
C      -1.317887   -0.507924    0.030248
C      -1.556720   -2.061600    0.077937
C      -0.781338   -2.444287    1.339221
O      -1.190441   -1.368655    2.226186
C      -2.074168   -0.612212    1.382746
C      -2.935012   -1.735538    0.728958
O      -3.891812   -1.348956   -0.228256
H       1.052251    2.050569   -0.098912
H      -0.508899    2.000864   -0.929664
H      -0.446403    2.033660    0.836952
H       0.592900   -0.272250   -0.922888
H       0.662706   -0.231008    0.835060
H      -1.970710   -0.075679   -0.729858
H      -1.469613   -2.702235   -0.798936
H      -1.083621   -3.409661    1.761165
H       0.306742   -2.438273    1.213687
H      -2.481624    0.232436    1.938914
H      -3.332143   -2.480094    1.432052
H      -4.631374   -0.945323    0.237148
