22

C      -0.073897    1.544941   -0.081079
C      -0.010867    0.014564   -0.014804
C      -1.388166   -0.587202   -0.279069
C       1.169253   -0.543853   -0.875782
C       2.040334   -0.632063    0.404625
C       0.744386   -0.536432    1.248527
C       0.759556    0.244297    2.547012
O       1.549520   -0.490281    3.475379
H       0.906288    2.006361    0.075651
H      -0.432368    1.864408   -1.066361
H      -0.761400    1.954410    0.667805
H      -1.767098   -0.288909   -1.264056
H      -1.355277   -1.681465   -0.251032
H      -2.119095   -0.255268    0.468297
H       0.938925   -1.532468   -1.284265
H       1.527504    0.091670   -1.690881
H       2.658607   -1.521673    0.537042
H       2.677164    0.248610    0.534488
H       0.376277   -1.544478    1.472003
H       1.178976    1.249343    2.385315
H      -0.270401    0.375361    2.920282
H       1.606468    0.018713    4.289241
