19

C       0.048399    1.299109    0.067111
O       0.023574   -0.106684   -0.014751
C      -1.268046   -0.641811    0.132723
C      -1.182154   -2.149792    0.081748
O      -0.536694   -2.599837    1.289815
C      -0.314298   -3.911833    1.383489
O      -0.625650   -4.730274    0.548909
C       0.388959   -4.290161    2.674813
O       0.579158   -5.674394    2.746403
H       1.086820    1.613999   -0.057597
H      -0.562290    1.765555   -0.722294
H      -0.318285    1.657482    1.041681
H      -1.722164   -0.325508    1.086451
H      -1.933945   -0.301650   -0.679373
H      -2.179783   -2.594897    0.017885
H      -0.599265   -2.477461   -0.782970
H       1.345436   -3.747100    2.714177
H      -0.215369   -3.924678    3.518220
H       0.225024   -6.027776    1.916618
