17

C      -0.005859    1.555136   -0.045794
O       1.376475    1.928615   -0.010780
C       2.090085    0.718917    0.200653
O       1.340124   -0.287710   -0.425530
C       0.008829    0.004187    0.015837
C      -0.185274   -0.553447    1.432102
C       0.990707   -0.164912    2.321424
O       2.213016   -0.887526    2.125217
C       2.166471    0.471217    1.706473
H      -0.546996    2.001284    0.796584
H      -0.441711    1.922081   -0.980440
H       3.069728    0.788375   -0.278621
H      -0.685608   -0.448086   -0.694774
H      -1.117262   -0.167484    1.860997
H      -0.267403   -1.644921    1.397925
H       0.767902    0.038898    3.367827
H       2.780083    1.170275    2.273017
