19

C       0.046334    1.527309   -0.050336
C       0.056947    0.004670    0.090803
O       0.699509   -0.406242    1.296464
C      -1.343724   -0.596313    0.000276
C      -2.139709   -0.594222   -1.336428
N      -2.389686   -2.079529   -1.263221
C      -1.052861   -2.695765   -1.314824
C      -1.492261   -2.116769   -0.031242
H       1.061714    1.923534    0.034155
H      -0.368243    1.835882   -1.015759
H      -0.567006    1.985549    0.736158
H       0.681970   -0.421330   -0.703075
H       0.218460   -0.011903    2.032887
H      -1.959723   -0.169194    0.801212
H      -3.082447   -0.045930   -1.297263
H      -1.590284   -0.291251   -2.235744
H      -1.088738   -3.776814   -1.408343
H      -0.272890   -2.219058   -1.905303
H      -1.733179   -2.738954    0.824322
