20

C      -0.139188    1.489087    0.002996
C       0.045551   -0.032380   -0.070163
C       0.839645   -0.431970   -1.321600
C       0.714005   -0.567651    1.196769
C      -0.065346   -0.492474    2.567120
C       0.058418   -2.017136    2.667013
O      -0.573472   -2.570596    1.505727
C       0.774524   -2.097752    1.385415
H       0.829999    1.999861    0.059560
H      -0.659362    1.864969   -0.884241
H      -0.722080    1.784654    0.881199
H      -0.945240   -0.500318   -0.129870
H       1.849585   -0.003969   -1.301291
H       0.937676   -1.519007   -1.405738
H       0.347450   -0.072058   -2.230999
H       1.713691   -0.131083    1.311149
H       0.488265    0.045007    3.340484
H      -1.092465   -0.120299    2.528140
H       0.110132   -2.647557    3.547102
H       1.514150   -2.806557    1.030233
