17

O      -0.033931   -0.019666    0.131646
C      -0.006193    1.177748    0.016331
C       1.257752    2.011574    0.007146
C       1.378337    2.849013   -1.269793
C       0.457674    4.101378   -1.343453
N       1.589288    4.927766   -0.867792
C       2.554616    3.886256   -1.269907
C       3.680234    3.682909   -0.357062
N       4.572816    3.505872    0.355373
H      -0.950518    1.759557   -0.096979
H       1.232072    2.685334    0.874573
H       2.114291    1.341605    0.120592
H       1.365848    2.205956   -2.151251
H       0.132878    4.313862   -2.370897
H      -0.416826    4.125647   -0.685842
H       1.713215    5.833602   -1.305885
H       2.958511    4.004713   -2.285726
