15

C       0.070312    1.485133    0.005366
C      -0.062056    0.007828    0.035161
C      -1.113838   -0.862694   -0.046647
N      -2.499292   -0.905062   -0.186714
C      -2.771455   -2.177845   -0.177228
N      -1.673470   -3.017411   -0.040706
C      -0.571959   -2.185873    0.047336
C       0.774901   -2.075891    0.181501
O       1.078213   -0.732997    0.173142
H       0.696913    1.820909   -0.829261
H      -0.920516    1.930284   -0.108564
H       0.517947    1.872461    0.928185
H      -3.765823   -2.595535   -0.266428
H      -1.698180   -4.020898   -0.013735
H       1.607477   -2.747500    0.286102
