20

C      -0.033411    1.530186   -0.007636
C      -0.004959   -0.005598    0.051617
C       0.757490   -0.514954    1.284176
C      -1.406844   -0.553884   -0.012810
C      -1.922619   -2.035941   -0.068897
C      -3.210287   -1.163251    0.043558
N      -2.493391   -0.255927    1.043055
C      -2.547184   -0.271404   -1.020265
O      -2.759625    0.279434   -2.051391
H       0.982957    1.935398    0.006790
H      -0.529573    1.877655   -0.918057
H      -0.578489    1.937822    0.849357
H       0.508885   -0.376800   -0.846461
H       0.285233   -0.165358    2.209089
H       0.797116   -1.608582    1.314329
H       1.786620   -0.142884    1.279279
H      -1.750886   -2.629247   -0.973145
H      -1.709349   -2.606791    0.839741
H      -4.243130   -1.475535    0.180603
H      -2.278380   -0.832593    1.864075
