18

N      -0.114894    1.446514    0.008079
C      -0.062497    0.017132    0.005960
C       0.351082   -0.796068    1.271370
C      -0.383667   -1.929966    0.502735
C      -1.363151   -0.841742    0.004827
N       0.434864   -2.161859   -0.715212
C       0.776865   -0.758418   -1.077947
C       0.383587   -0.407117   -2.446055
N       0.062083   -0.068406   -3.503728
H       0.814621    1.846426    0.106042
H      -0.493394    1.790590   -0.871122
H       1.417423   -0.925757    1.484676
H      -0.180170   -0.444882    2.157268
H      -0.714076   -2.854577    0.971709
H      -2.058563   -0.503531    0.773120
H      -1.871893   -1.018003   -0.945025
H       1.280813   -2.674701   -0.487061
H       1.844829   -0.535180   -0.967830
