18

C      -0.078363    1.532884    0.036970
N       0.088590    0.086952    0.011222
C       0.782981   -0.527740   -1.111692
C       2.336123   -0.581083   -0.793757
O       3.280562   -0.790864   -1.772567
C       2.501109    0.076489    0.573840
C       1.105323   -0.547610    0.901205
C       1.379296   -1.608891   -0.260348
O       1.407816   -2.971367   -0.313077
H       0.834575    2.110628   -0.179343
H      -0.833670    1.814537   -0.704761
H      -0.450155    1.833873    1.022127
H       0.411337   -0.557227   -2.129691
H       3.351102    0.008031   -2.306630
H       3.283928   -0.423150    1.150227
H       2.616126    1.162210    0.652937
H       0.809803   -0.743319    1.931054
H       0.499547   -3.295597   -0.322982
