13

O      -0.118087    1.443500    0.044371
C      -0.033620    0.065443    0.044164
C      -0.383564   -0.799495    1.258335
C      -1.583107   -0.180038    1.930209
O      -1.910480    0.125031    3.027870
O      -2.326696   -0.071467    0.765996
C      -1.283176   -0.749985    0.007864
C      -1.652246   -1.736436   -0.939160
C      -1.950840   -2.566128   -1.755931
H       0.577032    1.796195    0.611236
H       0.777766   -0.364379   -0.546318
H       0.254704   -1.578605    1.649606
H      -2.222972   -3.298639   -2.475731
