19

C      -0.034737    1.500733   -0.158394
C      -0.014928    0.004194    0.181734
C      -1.373304   -0.615933    0.082728
O      -2.379740   -0.171879    1.008339
C      -2.879925   -1.531985    1.132440
C      -1.921783   -2.012497    0.052861
C      -2.025145   -1.118177   -1.196772
C      -3.288412   -0.564957   -1.737212
O      -3.548264   -0.526880   -2.917671
H       0.961103    1.937457   -0.043008
H      -0.361646    1.665216   -1.189815
H      -0.720853    2.036922    0.503239
H       0.662238   -0.532776   -0.492154
H       0.361995   -0.142748    1.201144
H      -2.639920   -1.936508    2.121769
H      -3.957979   -1.603832    0.957129
H      -1.426445   -2.972715    0.004844
H      -1.317943   -1.410149   -1.968097
H      -3.990223   -0.155675   -0.983042
