21

C      -0.041053    1.562175   -0.020836
C      -0.035853    0.054145    0.073417
C       1.227635   -0.749474   -0.214200
C       0.635448   -0.768385    1.173691
C       1.410930   -0.170279    2.324149
C      -0.295180   -1.961865    1.479366
O      -0.802913   -1.964638    2.813045
C      -1.395640   -1.832212    0.450237
C      -1.275971   -0.709342   -0.263111
H       0.914265    1.988586    0.297865
H      -0.215548    1.889087   -1.052782
H      -0.828010    2.001944    0.602510
H       1.139012   -1.626154   -0.848651
H       2.155712   -0.196561   -0.335607
H       1.960187    0.722751    2.012377
H       0.752147    0.101919    3.152950
H       2.141355   -0.887902    2.714580
H       0.248246   -2.910880    1.394362
H      -1.459039   -1.260329    2.864083
H      -2.176812   -2.576643    0.349751
H      -1.956384   -0.384467   -1.044276
