22

C       0.022741    1.615817   -0.190234
C       0.035776    0.089748   -0.097760
O       0.805938   -0.479464   -1.158116
C       0.664878   -0.411587    1.204648
C       0.540946   -1.918358    1.367185
C       1.060107   -2.626050    2.651055
C      -0.358049   -3.168959    2.808401
C      -1.333098   -2.068172    2.885516
N      -0.858976   -2.481340    1.548932
H       1.041878    2.010519   -0.125277
H      -0.408023    1.943913   -1.143018
H      -0.575660    2.056273    0.614351
H      -0.998047   -0.286349   -0.145104
H       0.339316   -0.320972   -1.984076
H       1.729859   -0.144046    1.198997
H       0.211109    0.116546    2.050696
H       0.946020   -2.391699    0.471101
H       1.813838   -3.387340    2.442981
H       1.418348   -1.993073    3.469888
H      -0.619018   -4.198644    3.031229
H      -2.376427   -2.321688    3.047136
H      -1.035551   -1.109621    3.304255
