18

N       0.497855    1.059116    0.668565
C       0.164925   -0.000976    0.086393
C      -1.144834   -0.710911   -0.168325
C      -0.269551   -1.757191   -0.892632
C      -0.134691   -3.176724   -0.311107
C       0.263190   -4.008274   -1.505941
C       0.121230   -3.336765   -2.647503
C      -0.396529   -1.938182   -2.416624
O       0.928264   -0.944514   -0.563544
H       1.508958    1.199638    0.625484
H      -1.657824   -1.059731    0.729944
H      -1.847762   -0.161361   -0.797297
H       0.597991   -3.187909    0.502687
H      -1.088796   -3.519138    0.113651
H       0.596070   -5.035757   -1.416662
H       0.319828   -3.729061   -3.638040
H      -1.443349   -1.842037   -2.737416
H       0.169643   -1.161742   -2.941790
