20

C      -0.026305    1.441394   -0.138448
C       0.022104   -0.049141    0.098289
O       1.067699   -0.626893    0.335694
C      -1.300554   -0.822772    0.040421
C      -1.942620   -0.796546    1.425367
N      -2.134747   -0.316654   -1.096720
C      -1.725643   -1.496353   -1.929013
C      -1.187117   -2.217765   -0.666528
O       0.008108   -2.928159   -0.699154
H       0.937569    1.884821    0.113610
H      -0.267814    1.626175   -1.189273
H      -0.828707    1.907448    0.441772
H      -2.157308    0.225302    1.756577
H      -2.884044   -1.355890    1.411015
H      -1.279325   -1.262274    2.160495
H      -3.119556   -0.381782   -0.855381
H      -2.533612   -1.980255   -2.483321
H      -0.928149   -1.220494   -2.628004
H      -1.971709   -2.873196   -0.262951
H       0.700225   -2.335080   -0.365779
