13

N      -0.061252    1.251395    0.283363
C      -0.001740    0.030057   -0.007712
O       1.126655   -0.691650   -0.275372
C       0.819439   -1.980649   -0.835029
C      -0.665667   -2.173578   -0.624805
O      -1.042110   -2.039700    0.738490
C      -1.184696   -0.887765   -0.117804
C      -2.513376   -0.384350   -0.338359
N      -3.582734    0.007510   -0.527844
H       0.864423    1.682353    0.272524
H       1.072625   -1.985296   -1.901053
H       1.418096   -2.732371   -0.313522
H      -1.251318   -2.853137   -1.235483
