20

C      -0.015522    1.553566   -0.064310
C      -0.070001    0.055540    0.084120
O       1.180788   -0.653230   -0.051213
C       0.539644   -0.653377    1.212051
C       1.270199   -0.210638    2.481808
N       0.957928   -1.525507    3.154004
C      -0.516285   -1.606758    3.181384
C       0.169853   -1.944627    1.913568
C       0.239393   -3.307286    1.295955
H       0.817686    1.972602    0.505859
H       0.113501    1.833190   -1.115031
H      -0.946792    2.007148    0.292149
H      -0.900160   -0.435981   -0.427415
H       2.346200   -0.113278    2.322187
H       0.894816    0.665926    3.021004
H      -0.885664   -2.429996    3.786155
H      -1.095159   -0.688303    3.266798
H      -0.651377   -3.508124    0.689538
H       1.115129   -3.392254    0.646346
H       0.302109   -4.074749    2.072467
