16

C      -0.026158    1.493594    0.010187
C       0.030447   -0.022170   -0.013427
O       1.083837   -0.623624   -0.069107
C      -1.269281   -0.743319    0.034850
C      -1.401925   -2.071988    0.021621
C      -2.847776   -2.446182    0.081465
O      -3.556051   -1.210513    0.130996
C      -2.643223   -0.116745    0.105928
H       0.984625    1.899992   -0.029027
H      -0.608140    1.868732   -0.839952
H      -0.530192    1.844370    0.918515
H      -0.584626   -2.779714   -0.025466
H      -3.163584   -3.029669   -0.798432
H      -3.083815   -3.054889    0.969268
H      -2.780060    0.500887    1.007505
H      -2.859827    0.526839   -0.761187
