22

O       0.170431    0.282160    1.063873
C       0.064561    1.200459    0.278385
N       1.038394    1.633047   -0.566193
C       2.377300    1.063864   -0.599247
C       3.449690    2.011040   -0.046114
C       4.847574    1.410148   -0.108192
C       5.535453    1.208701   -1.491877
C       6.876210    1.649795   -0.846089
C       6.062930    2.282941    0.315003
H      -0.866955    1.790514    0.162539
H       0.835437    2.429605   -1.149214
H       2.330838    0.150082   -0.002020
H       2.623164    0.777252   -1.629380
H       3.434799    2.953598   -0.612480
H       3.195342    2.264882    0.990667
H       4.863720    0.465137    0.448815
H       5.488850    0.218262   -1.951376
H       5.179193    1.945823   -2.220348
H       7.463457    0.791375   -0.507680
H       7.528219    2.305921   -1.427231
H       5.867011    3.345817    0.136784
H       6.442746    2.167775    1.333161
