17

O      -0.028690    1.382276   -0.018697
C      -0.018109   -0.001064   -0.004966
C      -0.439339   -0.738221   -1.272212
C      -1.327911   -0.762243   -0.057413
C      -1.446167   -2.044558    0.767972
O      -0.431795   -2.198950    1.749333
C       0.877146   -2.045587    1.229288
C       1.071292   -0.593065    0.812841
O       2.000359    0.096816    1.183725
H       0.825030    1.637156    0.366563
H      -0.716043   -0.083489   -2.090350
H       0.076612   -1.648799   -1.560973
H      -2.209099   -0.130521   -0.095840
H      -2.386401   -2.047804    1.324439
H      -1.445953   -2.919090    0.096263
H       1.582418   -2.277356    2.029360
H       1.062079   -2.733082    0.385616
