23

C      -0.054663    1.519054   -0.013737
C      -0.011801    0.000989    0.027106
O      -1.336786   -0.487224   -0.022980
C      -1.417573   -1.890227    0.011133
C      -2.897311   -2.302667    0.038398
C      -3.043915   -3.832175   -0.140996
C      -4.495869   -4.297987   -0.260015
C      -3.548177   -1.838943    1.262566
C      -4.078969   -1.493898    2.284710
H       0.958200    1.930722    0.027220
H      -0.533769    1.864603   -0.934190
H      -0.624110    1.907807    0.835038
H       0.572159   -0.393144   -0.822646
H       0.486199   -0.348378    0.947461
H      -0.936674   -2.329038   -0.880106
H      -0.900862   -2.292636    0.898278
H      -3.376850   -1.806875   -0.817206
H      -2.487159   -4.121755   -1.040499
H      -2.560417   -4.334530    0.705428
H      -4.547818   -5.384157   -0.380908
H      -5.068197   -4.026111    0.631243
H      -4.987507   -3.841318   -1.126163
H      -4.548797   -1.168391    3.179461
