18

O      -0.048683    1.392645   -0.086281
C      -0.005319    0.009150   -0.016950
C      -0.475411   -0.699619    1.262372
C      -0.880410    0.096772    2.380974
N      -1.197216    0.749070    3.283482
C      -1.314231   -0.695532   -0.011580
C      -2.665576   -0.015080   -0.248241
C      -2.937380   -1.067534   -1.366475
C      -1.715312   -1.899481   -0.870461
H       0.579459    1.762119    0.544515
H       0.832910   -0.465926   -0.529047
H       0.026835   -1.627059    1.521566
H      -3.341107   -0.107396    0.606231
H      -2.616838    1.032779   -0.547188
H      -3.906013   -1.569169   -1.337019
H      -2.785260   -0.660199   -2.368208
H      -0.992730   -2.223740   -1.624341
H      -2.007676   -2.765762   -0.269978
