20

C      -0.131564    1.470215    0.038168
C       0.055001   -0.042786   -0.021891
C       0.935709   -0.543446   -1.186320
C       2.364069   -0.319609   -0.659877
C       2.183309   -0.720841    0.794112
C       1.280952   -1.880821    1.009006
C       0.801494   -2.695075   -0.178157
O       0.721112   -1.940165   -1.384094
N       0.762380   -0.512908    1.197575
H       0.828558    1.993943    0.078505
H      -0.680958    1.829477   -0.838020
H      -0.693272    1.741229    0.936079
H      -0.926228   -0.527707   -0.074543
H       0.728577   -0.069027   -2.147254
H       3.082253   -0.938996   -1.203488
H       2.677421    0.726096   -0.745135
H       2.936080   -0.459921    1.531151
H       1.363229   -2.451943    1.931713
H       1.482062   -3.541688   -0.344415
H      -0.188602   -3.120165    0.048491
