15

O       0.038625    0.032631   -0.109041
C      -0.006326    1.223981    0.000748
C      -1.113560    2.268753   -0.053462
N      -0.889919    3.155816    1.144774
C      -0.067035    3.349276   -0.058579
C       1.049191    2.321455    0.038500
C       2.355818    2.346348    0.775316
C       2.347283    2.249247   -0.725040
H      -2.082252    2.218655   -0.533193
H      -1.648388    3.839809    1.118609
H      -0.069519    4.270325   -0.626882
H       2.653816    3.284594    1.230623
H       2.614312    1.459943    1.344749
H       2.587887    1.295651   -1.183191
H       2.639870    3.121006   -1.300899
