19

O       0.070890    1.461339   -0.148310
C       0.032691    0.059236   -0.000494
C       0.299673   -0.557709    1.421037
C      -1.111513   -1.223308    1.378237
O      -1.224355   -2.593199    1.626394
C      -2.318535   -0.472959    1.977946
C      -2.216416    1.015106    1.824953
C      -2.584795    0.196736    0.619645
C      -1.393383   -0.559297   -0.010866
H       0.991310    1.740325   -0.110313
H       0.666821   -0.422219   -0.758885
H       1.113336   -1.290719    1.433155
H       0.471158    0.164470    2.223451
H      -0.550665   -3.053531    1.114923
H      -3.008753   -0.950172    2.663045
H      -3.048567    1.562314    2.258525
H      -1.272790    1.544172    1.872705
H      -3.528801    0.344787    0.109852
H      -1.662755   -1.166018   -0.876011
