19

C       0.019548   -1.220424    0.046452
C       0.033019   -0.020657    0.047058
C       0.014016    1.443740    0.007205
O      -0.669322    1.912822    1.144174
C      -1.440596    3.100471    0.991925
C      -0.735448    4.249780    0.250185
C       0.789169    4.279238    0.436654
C       1.522399    3.239216   -0.419924
O       1.346947    1.888541   -0.017236
H       0.014684   -2.282425    0.056539
H      -0.507850    1.774995   -0.909260
H      -2.398258    2.870409    0.501200
H      -1.665797    3.399683    2.019953
H      -0.954906    4.200005   -0.823686
H      -1.178738    5.188980    0.600634
H       1.165740    5.264881    0.136848
H       1.057005    4.137303    1.489453
H       1.213499    3.356680   -1.472978
H       2.602200    3.404998   -0.371445
