18

C       0.179249    1.515590   -0.243156
C      -0.038708    0.055372   -0.093858
C      -1.117167   -0.746200    0.119655
N      -0.686490   -2.075389    0.170768
C       0.588841   -2.007578   -0.008963
O       1.070757   -0.759284   -0.177843
C      -2.536831   -0.392373    0.283736
C      -3.611736   -1.316004   -0.254538
C      -3.410233   -1.194675    1.228003
H       0.854899    1.903717    0.527720
H       0.616835    1.761154   -1.217626
H      -0.772103    2.045094   -0.156686
H       1.304504   -2.814452   -0.039978
H      -2.743122    0.671141    0.224711
H      -4.489611   -0.862374   -0.701165
H      -3.270958   -2.227617   -0.731281
H      -2.935553   -2.025687    1.736476
H      -4.147877   -0.656618    1.813061
