17

O       0.078871    1.372373   -0.028173
C      -0.016480   -0.027531   -0.014654
C      -1.431884   -0.495033    0.096337
N      -2.423870    0.300551    0.183365
C      -3.609219   -0.566688    0.114543
C      -3.649061   -1.132400   -1.349418
C      -2.814595   -2.310907   -0.846369
C      -3.114539   -1.981145    0.568629
N      -1.717491   -1.900292    0.119378
H      -0.829354    1.702774    0.022891
H       0.420478   -0.463145   -0.928529
H       0.555961   -0.452158    0.825270
H      -4.507229   -0.115473    0.528221
H      -4.649194   -1.484722   -1.613134
H      -3.255019   -0.483783   -2.136201
H      -2.657390   -3.265054   -1.333000
H      -3.382053   -2.589850    1.424446
