17

O      -0.872851    1.140794    0.279742
C       0.241251    0.771543    0.022148
C       1.462706    1.681514    0.025040
C       1.352868    2.832097    1.042763
C       2.670418    3.590810    1.122056
O       2.738257    4.795995    1.102514
C       3.893405    2.688118    1.211959
C       3.807186    1.559813    0.168520
O       2.581565    0.854313    0.271149
H       0.477598   -0.278963   -0.253543
H       1.534632    2.111579   -0.993542
H       0.540144    3.511729    0.783943
H       1.138536    2.399085    2.028108
H       4.797942    3.287084    1.082417
H       3.913777    2.235481    2.211611
H       3.917339    1.977498   -0.845454
H       4.600879    0.824321    0.319996
