16

N       0.070220    1.056170    0.749203
C       0.012986    0.051552   -0.160917
O       0.892014   -0.226285   -0.954740
C      -1.263134   -0.750707   -0.089764
C      -1.430799   -2.032718    0.796545
C      -2.894712   -1.534700    0.616797
O      -2.371903   -0.160298    0.681482
C      -3.098464   -1.715701   -0.900257
C      -1.973409   -1.185992   -1.382512
H       0.861092    1.678490    0.740943
H      -0.736319    1.264225    1.314635
H      -1.142340   -2.993555    0.369592
H      -1.051620   -1.893529    1.811727
H      -3.702429   -1.743652    1.316126
H      -3.942686   -2.168046   -1.398466
H      -1.591395   -1.065420   -2.383905
