20

C      -0.417960    1.328250    0.038276
C       0.068197   -0.097502    0.056463
N      -0.565220   -1.093946    0.956368
C       0.847385   -0.701147    1.167254
C       1.831619   -1.710949    0.614726
C       1.285777   -2.028170   -0.798496
C       0.529283   -0.749418   -1.255195
C      -0.634088   -1.068417   -2.165353
O      -0.794496   -0.616169   -3.271176
H       0.324525    1.990626   -0.419877
H      -1.344964    1.427322   -0.537676
H      -0.611494    1.689822    1.053632
H      -1.153457   -0.603898    1.626585
H       1.098311   -0.119668    2.049467
H       2.825420   -1.250818    0.560781
H       1.915557   -2.610336    1.232496
H       2.070120   -2.308700   -1.504843
H       0.581338   -2.862073   -0.738881
H       1.192479   -0.057270   -1.784862
H      -1.369731   -1.772643   -1.715140
