18

O       0.000618    0.015186   -0.079935
C      -0.023211    1.209810   -0.032556
C      -1.118630    2.275779   -0.030123
C      -1.472738    2.826147    1.379266
C      -0.337153    3.870889    1.175038
C       0.944500    3.732037    1.995875
C       1.713241    2.539822    1.370823
C       1.044352    2.319500   -0.009359
N      -0.046123    3.346173   -0.210790
H      -1.920907    2.187192   -0.765747
H      -2.471746    3.261773    1.432166
H      -1.357704    2.124798    2.210008
H      -0.698401    4.902015    1.153134
H       1.533943    4.649584    1.902929
H       0.737426    3.587069    3.060278
H       2.778311    2.757414    1.268031
H       1.632941    1.635764    1.981218
H       1.758622    2.277542   -0.835866
