17

C       0.048893    1.451581   -0.089668
O       1.499741    1.407947   -0.163677
C       1.481825   -0.008028    0.046826
C      -0.037749   -0.065566    0.033217
C       0.780143   -0.693204   -1.070248
C       0.759085   -0.413021   -2.593929
C       0.770291   -1.941436   -2.794242
O       1.942667   -2.457048   -2.155508
C       0.790088   -2.188559   -1.342522
H      -0.270788    1.981207    0.814636
H      -0.401357    1.920152   -0.972957
H       2.241907   -0.439674    0.688025
H      -0.736921   -0.620576    0.645255
H      -0.171946    0.056354   -2.924112
H       1.615922    0.120912   -3.009269
H       0.345216   -2.525670   -3.601603
H       0.395500   -3.003380   -0.746463
