19

O      -0.088424    1.345047   -0.128116
C      -0.050876   -0.039835    0.053935
C      -0.611294   -0.645742    1.323261
C      -1.370882   -0.728827    0.029042
C      -2.711281   -0.104626   -0.338731
O      -3.054477   -1.271857   -1.130739
C      -1.829373   -1.918494   -0.777478
C      -1.099317   -2.807583   -1.726834
C      -1.766408   -3.379986   -0.479966
H       0.593773    1.739038    0.425681
H       0.792964   -0.547351   -0.416043
H      -0.148337   -1.546360    1.715713
H      -0.991585    0.039667    2.074881
H      -3.414157    0.042361    0.489932
H      -2.656407    0.804530   -0.945838
H      -1.576434   -2.999853   -2.681839
H      -0.015461   -2.758781   -1.763234
H      -1.138002   -3.719116    0.337900
H      -2.679623   -3.948871   -0.617897
