22

C       0.376642    1.319524    0.252579
C       0.121894   -0.189916    0.207464
C      -1.339082   -0.615468   -0.010883
C      -1.441589   -2.136000   -0.155683
N      -2.152033   -0.199651    1.140742
C      -2.761352    1.116431    1.128702
C      -3.617448   -0.106688    0.988258
C      -4.282673   -0.366225   -0.260619
C      -4.867774   -0.609123   -1.283867
H       1.449623    1.526261    0.317267
H      -0.000497    1.816189   -0.648845
H      -0.099250    1.786899    1.118850
H       0.713158   -0.628062   -0.606146
H       0.477718   -0.652728    1.135983
H      -1.708265   -0.145486   -0.939122
H      -2.472926   -2.445457   -0.340828
H      -0.827717   -2.482292   -0.992771
H      -1.091604   -2.628279    0.757423
H      -2.752395    1.662860    2.068430
H      -2.654221    1.729472    0.235943
H      -4.160306   -0.456781    1.863362
H      -5.382642   -0.815022   -2.189471
