18

N       0.385862    1.339677   -0.501404
C      -0.051321    0.035806   -0.017072
C       0.815557   -0.576177    1.089733
C       0.819770    0.253222    2.281452
N       0.765358    0.943670    3.207296
C       1.020140   -2.030527    1.343932
C       0.999952   -2.857503    0.060855
C       2.126894   -1.919117   -0.440833
N       2.172570   -1.167780    0.869580
H       0.363472    2.016896    0.255992
H       1.352145    1.293342   -0.812177
H      -1.069467    0.136412    0.374165
H      -0.115594   -0.649751   -0.864672
H       0.985722   -2.428360    2.353093
H       1.347231   -3.878829    0.223105
H       0.059776   -2.892660   -0.495086
H       3.084408   -2.422706   -0.579821
H       1.928310   -1.298513   -1.318417
