23

C      -0.059766    1.445473   -0.221172
O       0.037173    0.078626    0.099038
C      -1.202941   -0.603061    0.070800
C      -1.686143   -0.915964   -1.370394
C      -1.767700   -2.457374   -1.416702
C      -1.380883   -3.093109   -2.740210
O      -0.869028   -2.895771   -0.406550
C      -1.037766   -2.012832    0.695378
C       0.112630   -2.185725    1.669465
H       0.939162    1.875622   -0.113919
H      -0.403939    1.612385   -1.253301
H      -0.749473    1.972527    0.457773
H      -1.944542   -0.018032    0.635633
H      -2.637447   -0.442021   -1.624309
H      -0.926886   -0.560277   -2.073646
H      -2.792166   -2.771003   -1.145198
H      -0.363237   -2.801183   -3.017611
H      -1.419433   -4.183752   -2.669567
H      -2.064667   -2.775209   -3.533527
H      -1.991064   -2.254439    1.199889
H       1.059428   -1.937703    1.188012
H      -0.016961   -1.528720    2.534235
H       0.148208   -3.220644    2.020134
