20

C      -0.863677    1.124274   -0.004257
C       0.119033   -0.043057   -0.009826
C       1.226862    0.030473   -1.090316
C       2.370625   -0.724108   -0.464435
C       2.219833   -0.913294    0.846893
C       3.156708   -1.568099    1.809258
C       0.904540   -0.290340    1.322762
C       1.167807    0.930561    2.095181
N       1.391244    1.888660    2.703348
H      -0.354111    2.073981    0.184740
H      -1.370625    1.198123   -0.971680
H      -1.632140    0.999506    0.765496
H      -0.437472   -0.971307   -0.182856
H       0.894023   -0.397868   -2.042319
H       1.513041    1.071154   -1.301831
H       3.239174   -1.048678   -1.028047
H       4.056905   -1.928581    1.305159
H       3.461990   -0.869234    2.597739
H       2.681206   -2.420411    2.311329
H       0.346897   -0.965534    1.984037
