21

C       0.553094    0.105320   -1.439899
C       0.056762    0.085334    0.007768
O       0.107704    1.389583    0.588255
C      -1.351571   -0.492201    0.117530
C      -1.541053   -2.052544    0.076980
C      -1.179464   -2.054407    1.597733
C      -1.959799   -0.721276    1.529340
O      -3.301471   -1.145600    1.226728
C      -3.069982   -2.118998    0.178889
H       1.547682    0.556169   -1.491693
H       0.605728   -0.905319   -1.857727
H      -0.123556    0.692860   -2.072936
H       0.761173   -0.497557    0.609252
H      -0.492268    1.955044    0.088619
H      -2.018333    0.069340   -0.551348
H      -1.052975   -2.696200   -0.654627
H      -1.606596   -2.841231    2.223992
H      -0.114821   -1.943971    1.797507
H      -1.973615    0.031908    2.313898
H      -3.585320   -1.813610   -0.739499
H      -3.444586   -3.102180    0.487955
