20

C       0.249878   -0.006215   -0.830936
C       0.009489    0.546403    0.573888
N       0.744780   -0.243565    1.560773
C       0.165915   -0.628078    2.599620
O      -1.130351   -0.416865    3.049912
C      -0.924174   -1.302741    4.192828
C       0.549730   -1.498599    3.794984
O       0.888108   -2.829205    3.545411
C       2.213009   -2.983493    3.058621
H      -0.137645   -1.025897   -0.918785
H      -0.250285    0.615561   -1.580172
H       1.319971   -0.031474   -1.055837
H       0.385998    1.576157    0.627440
H      -1.065881    0.584807    0.791106
H      -1.125061   -0.787080    5.133938
H      -1.520844   -2.213204    4.104725
H       1.275334   -1.015202    4.466339
H       2.949072   -2.620196    3.792215
H       2.367000   -4.052666    2.898997
H       2.357938   -2.443595    2.115887
