23

C       0.130176    1.569532    0.099865
C       0.019054    0.050696    0.012920
C       0.630721   -0.493373   -1.289181
C       0.209877   -1.919825   -1.701309
C      -0.083199   -2.875529   -0.534305
O       0.812294   -2.740249    0.557248
C       0.432818   -1.785479    1.523465
C       1.216332   -2.071789    2.790768
O       0.716030   -0.461763    1.150805
H       1.175999    1.879730    0.007353
H      -0.444164    2.046664   -0.699676
H      -0.246667    1.923775    1.062702
H      -1.044966   -0.233356    0.084477
H       0.394749    0.192295   -2.110941
H       1.716141   -0.454460   -1.150130
H      -0.692910   -1.882818   -2.324491
H       0.997869   -2.343820   -2.333138
H      -1.114467   -2.730537   -0.177705
H      -0.006896   -3.913159   -0.876763
H      -0.657033   -1.882859    1.694314
H       2.286048   -1.993029    2.581412
H       0.953711   -1.348300    3.565551
H       0.997797   -3.080954    3.146378
