15

C       0.141813    1.531070    0.014839
C      -0.055059    0.018895   -0.054503
C      -1.516320   -0.404875    0.025239
O      -2.424091    0.386157    0.044272
C      -1.743091   -1.929191    0.085563
C      -3.134370   -2.339868    0.021166
C      -4.282697   -2.685523   -0.034293
H       1.201790    1.786295   -0.067985
H      -0.401152    2.030173   -0.791170
H      -0.237844    1.931466    0.958411
H       0.355121   -0.389421   -0.989236
H       0.496825   -0.494530    0.744732
H      -1.161403   -2.394538   -0.721769
H      -1.277926   -2.288496    1.014841
H      -5.300819   -2.982560   -0.083556
