17

C      -0.001664    1.543783    0.014150
C       0.038567    0.049127    0.035435
N       0.619266   -0.708843   -1.077016
C       1.213371   -1.722512   -0.156616
C       0.664822   -0.954807    1.045275
C       1.283944   -0.737492    2.303593
N       1.763459   -0.579318    3.346549
C      -0.853974   -0.806728    0.881929
O      -1.522457   -0.135444    1.893419
H       0.990804    1.954029   -0.189039
H      -0.677796    1.884439   -0.779111
H      -0.371247    1.930913    0.965206
H      -0.072444   -1.082178   -1.723133
H       0.839814   -2.747884   -0.265035
H       2.305015   -1.729413   -0.217833
H      -1.394455   -1.642415    0.426195
H      -1.421833   -0.622520    2.719873
