21

C       0.224421    1.647326    0.198096
C       0.125425    0.146023    0.152987
O      -1.231441   -0.311183   -0.086239
C      -1.156309   -1.251918    1.009216
C       0.288935   -0.848398    1.348033
C       1.382613   -1.622909    0.565917
C       1.161115   -0.681603   -0.632354
C       1.062515   -1.045570   -2.082011
C       2.194590   -0.172645   -1.596688
H       1.239309    1.965143    0.455463
H      -0.029607    2.075308   -0.778932
H      -0.473336    2.057396    0.933948
H      -1.899258   -1.019355    1.782473
H      -1.299913   -2.289674    0.680166
H       0.502994   -0.541358    2.371253
H       2.375912   -1.526942    1.014840
H       1.179609   -2.685586    0.397173
H       1.289331   -2.068932   -2.364258
H       0.266596   -0.588570   -2.660803
H       2.178139    0.880346   -1.860019
H       3.190811   -0.601609   -1.543383
