21

C      -0.146165    1.663903    0.136991
C       0.177400    0.182761   -0.088674
C       0.769057   -0.475985    1.154868
C      -0.212406   -0.794743    2.306000
O       0.014056   -2.212254    2.174896
C       1.020599   -2.011456    1.161925
C       0.747905   -2.826025   -0.107660
C       0.927682   -4.257222    0.101324
C       1.091618   -5.433116    0.286243
H       0.755029    2.229665    0.397751
H      -0.577682    2.116447   -0.760671
H      -0.866041    1.794345    0.952504
H      -0.734921   -0.345417   -0.391954
H       0.882157    0.087749   -0.924610
H       1.648493    0.088731    1.478657
H       0.077762   -0.423192    3.296718
H      -1.262546   -0.530755    2.123434
H       2.013929   -2.282481    1.544548
H      -0.271712   -2.627347   -0.455789
H       1.429007   -2.481189   -0.897360
H       1.225705   -6.473535    0.449001
