18

C       0.534777    1.349424   -0.153211
N       0.606613   -0.082791    0.042563
C       0.207250   -0.687198    1.191345
O      -0.239332   -0.113029    2.172251
C       0.373901   -2.167409    1.160498
C      -0.385672   -3.135950    2.011916
C       1.117712   -3.097252    2.109079
C       1.730518   -3.673510    0.837273
O       0.910567   -2.811001   -0.005846
H       1.530095    1.785355   -0.297290
H      -0.085148    1.601378   -1.020674
H       0.086486    1.779150    0.743758
H       0.981456   -0.681208   -0.677422
H      -0.903959   -2.674269    2.844652
H      -0.890523   -3.967904    1.528810
H       1.647563   -2.849992    3.018040
H       2.791571   -3.434237    0.710971
H       1.558205   -4.734415    0.623848
