18

C      -0.069850    1.534640   -0.027593
C      -0.014877    0.029744    0.009957
C       1.235755   -0.715215   -0.353943
C       0.738106   -0.749292    1.080132
N       1.536284   -0.137523    2.093851
C      -0.114496   -1.948078    1.386348
O       0.041743   -2.754318    2.259441
O      -1.164956   -1.999694    0.517031
C      -1.289455   -0.769268   -0.221798
H       0.858548    1.952998    0.369238
H      -0.206151    1.904553   -1.049781
H      -0.897999    1.915825    0.580408
H       1.176589   -1.616656   -0.956209
H       2.129787   -0.118428   -0.498852
H       0.994259   -0.021858    2.945597
H       2.310402   -0.750120    2.335518
H      -2.169453   -0.232792    0.152852
H      -1.457256   -1.026060   -1.272537
