11

N      -0.100368    1.426462   -0.112292
C      -0.008205    0.040762   -0.052163
N      -1.058151   -0.772967    0.011554
N      -0.511061   -1.992075   -0.012475
N       0.819627   -2.037560   -0.098913
C       1.156296   -0.758205   -0.119198
O       2.425162   -0.299278   -0.177385
H       0.679595    1.891750    0.332172
H      -0.981210    1.769477    0.247318
H      -1.072637   -2.823934   -0.041095
H       3.013345   -1.063600   -0.198810
