22

N      -0.075650    1.287795    0.359824
C       0.064676   -0.010570   -0.046182
O       1.150504   -0.494015   -0.300897
C      -1.244274   -0.791232   -0.160192
C      -1.043545   -2.299614   -0.001560
C      -2.316904   -3.106223   -0.282194
C      -2.116141   -4.598952   -0.125984
C      -2.249474   -5.249811    1.228571
C      -3.283928   -5.507377    0.159133
H       0.739618    1.878705    0.343949
H      -0.976961    1.715508    0.478621
H      -1.973753   -0.413070    0.566983
H      -1.663428   -0.573986   -1.153272
H      -0.238750   -2.611060   -0.674933
H      -0.687459   -2.516106    1.012667
H      -3.120328   -2.780940    0.393789
H      -2.670241   -2.886857   -1.299988
H      -1.343638   -5.012080   -0.770628
H      -1.568050   -6.051087    1.492158
H      -2.535227   -4.619977    2.065380
H      -4.261298   -5.051199    0.280901
H      -3.308146   -6.484624   -0.310479
