17

N       0.033707   -0.727631   -1.269043
C      -0.011495    0.271973   -0.691024
C      -0.042425    1.531320    0.052282
C       1.361448    2.071428    0.285118
N       1.908826    2.939959   -0.760767
C       1.652377    3.508430    0.564621
C       0.626044    4.598171    0.680947
C       0.372552    5.539743   -0.419357
O      -0.561191    4.503320   -0.102680
H      -0.626025    2.272597   -0.497254
H      -0.545715    1.357193    1.010601
H       2.039288    1.353437    0.743420
H       2.898653    2.768586   -0.908275
H       2.509061    3.687009    1.215051
H       0.456145    4.940696    1.702868
H       0.033759    6.550777   -0.201627
H       0.909825    5.397083   -1.353722
