25

C       0.179891    1.561182   -0.031871
C       0.056826    0.035967    0.019494
C      -1.398228   -0.449502   -0.001008
C      -1.504947   -1.979515    0.046671
C      -2.942952   -2.571470    0.057621
C      -3.719695   -2.190128    1.322823
C      -3.721776   -2.171282   -1.214688
C      -2.761897   -4.084290   -0.004840
O      -3.135347   -4.873966    0.822938
H       1.227289    1.877985   -0.014596
H      -0.275101    1.964767   -0.943292
H      -0.323106    2.028048    0.822305
H       0.597918   -0.404817   -0.828307
H       0.551963   -0.342297    0.923496
H      -1.932510   -0.009068    0.849941
H      -1.887709   -0.064975   -0.904270
H      -0.961471   -2.395080   -0.813903
H      -0.979355   -2.341198    0.940705
H      -3.914433   -1.114717    1.356474
H      -4.679871   -2.711819    1.356381
H      -3.166221   -2.471182    2.223085
H      -3.182526   -2.460641   -2.123621
H      -4.705128   -2.652171   -1.237109
H      -3.881518   -1.090563   -1.249425
H      -2.226453   -4.430959   -0.922090
