14

C      -0.041643    1.398618   -0.050777
N      -0.006698   -0.049274    0.013203
N      -0.059120   -0.789797   -1.113247
C       0.025253   -2.051820   -0.683381
C       0.137193   -2.136706    0.726349
C       0.113611   -0.817295    1.124247
O       0.183347   -0.198625    2.319227
C      -0.005278   -3.138738   -1.600883
N      -0.025874   -4.051071   -2.312602
H       0.954730    1.822330    0.107842
H      -0.399788    1.669877   -1.042781
H      -0.719059    1.787685    0.712149
H       0.217220   -3.019579    1.337451
H       0.235424   -0.860915    3.015756
