17

O      -0.132031    1.293923    0.223616
C      -0.003489   -0.054928    0.048810
C      -0.272071   -0.958620    1.186148
C      -1.158977   -1.186291   -0.030098
C      -2.597385   -0.924381   -0.002407
O      -3.194008   -0.392549    0.909424
C      -0.384263   -1.815191   -1.160886
C      -0.208603   -0.860633   -2.309943
C       0.692622   -0.724405   -1.103217
H      -0.266982    1.706732   -0.637458
H       0.439694   -1.731778    1.464128
H      -0.796158   -0.487764    2.011990
H      -3.129787   -1.237402   -0.930363
H      -0.189943   -2.876421   -1.266137
H       0.268065   -1.265861   -3.197436
H      -0.971001   -0.114461   -2.518523
H       1.766437   -0.853435   -1.182010
