19

N       0.085344    1.356897    0.287763
C       0.033114   -0.079200   -0.022839
C      -1.392333   -0.645636    0.171484
C      -2.029788   -0.134250    1.458611
O      -1.146238   -0.040029    2.541470
C      -3.156140    0.870960    1.394604
C      -3.419959   -0.564411    1.807378
C       0.533179   -0.398749   -1.374280
N       0.928166   -0.608438   -2.440636
H       1.019603    1.717576    0.117906
H      -0.542837    1.871022   -0.323840
H       0.688027   -0.581294    0.697112
H      -2.018492   -0.382473   -0.687742
H      -1.312018   -1.738239    0.184457
H      -0.578101    0.717547    2.334003
H      -3.180038    1.623716    2.174336
H      -3.515066    1.203698    0.425805
H      -3.950619   -1.213067    1.118418
H      -3.614133   -0.754750    2.856287
