8

O      -0.020132    1.457381    0.010102
C       0.001685    0.035800    0.002247
C      -1.363667   -0.474811    0.012551
C      -2.479028   -0.919702    0.020825
H       0.894469    1.757366    0.003274
H       0.519790   -0.351754   -0.889803
H       0.536705   -0.361277    0.880009
H      -3.467735   -1.307370    0.028181
