19

C      -0.043176    1.438729    0.022595
N       0.002667   -0.010435    0.017164
C      -1.231816   -0.797361    0.045279
C      -1.076391   -1.939062    1.074697
N      -0.334544   -2.724109    0.017670
C      -1.127462   -1.933164   -0.997049
C       1.048920   -2.217717   -0.014967
C       1.199064   -0.680115   -0.014186
O       2.289331   -0.138171   -0.039410
H       0.985439    1.798988   -0.001617
H      -0.581197    1.822286   -0.852956
H      -0.537459    1.817007    0.925793
H      -2.095215   -0.128483    0.068473
H      -0.513066   -1.727987    1.987364
H      -2.016040   -2.441952    1.318812
H      -2.078043   -2.434835   -1.197446
H      -0.609747   -1.716801   -1.935133
H       1.599114   -2.603852    0.849184
H       1.555806   -2.598751   -0.907407
