16

O       0.083939    0.054269    0.477000
C      -0.013803    1.203512    0.174841
C      -1.189236    2.246818    0.111645
C      -2.125852    2.254127    1.207811
C      -2.880115    2.262749    2.144161
C      -0.029347    3.289557    0.067958
C       0.684577    3.697859    1.382837
C       1.788812    2.653549    1.034080
N       0.967053    2.177393   -0.133407
H      -1.708226    2.198668   -0.852215
H      -3.557431    2.261198    2.962164
H      -0.090477    4.043495   -0.718009
H       1.010464    4.737681    1.434594
H       0.108210    3.459065    2.279679
H       2.733426    3.086214    0.698141
H       1.989788    1.866516    1.764137
