21

C      -0.056905    1.565529    0.155561
C       0.055632    0.070322    0.061397
C      -0.854430   -0.865087    0.818483
C       0.629334   -0.951307    1.049243
C       1.276417   -1.728918   -0.099631
C       0.674275   -0.709226   -1.112914
C      -0.150364   -1.111529   -2.353235
O       0.736733   -0.395697   -3.237132
C       1.590386   -0.013797   -2.141824
H       0.901640    2.060569   -0.035484
H      -0.782887    1.960245   -0.565896
H      -0.389821    1.866725    1.154161
H      -1.427813   -0.399284    1.614144
H      -1.379246   -1.673674    0.312657
H       1.069057   -0.783025    2.025192
H       2.369285   -1.686524   -0.092511
H       0.968139   -2.774906   -0.212286
H      -0.171773   -2.186590   -2.577771
H      -1.175600   -0.719717   -2.389219
H       1.681622    1.076568   -2.055860
H       2.596445   -0.446610   -2.232122
