19

C       0.866410    1.415925   -0.141886
N       0.796213   -0.001093   -0.434575
C      -0.323563   -0.599118   -0.923770
O      -1.366157   -0.016565   -1.169727
C      -0.183138   -2.105239   -1.105085
C      -0.866629   -2.779917   -2.318332
C       0.531210   -3.262963   -2.704970
C       1.451850   -2.125036   -2.853776
N       1.186549   -2.626611   -1.484137
H       1.642318    1.909638   -0.737741
H      -0.103677    1.847716   -0.391928
H       1.074535    1.595560    0.918864
H       1.609761   -0.581589   -0.299841
H      -0.473274   -2.578006   -0.161708
H      -1.549226   -3.579381   -2.028801
H      -1.369599   -2.119530   -3.027851
H       0.789123   -4.269479   -3.016652
H       2.468081   -2.330856   -3.174795
H       1.068305   -1.151821   -3.152815
