15

O      -0.228029    1.360021    0.059081
N      -0.051341   -0.034242    0.151288
C      -1.168034   -0.632553    0.138292
C      -1.516059   -2.066347    0.080519
C      -2.873946   -2.202380    0.711280
C      -3.338992   -0.827825    1.188093
O      -3.022737   -0.318669    2.446264
C      -2.623569   -0.304883   -0.086962
N      -2.779798   -1.744256   -0.708073
H       0.680961    1.677286    0.029589
H      -0.887132   -2.915175   -0.152835
H      -3.277767   -3.177964    0.959258
H      -4.422876   -0.746792    1.075982
H      -2.062730   -0.310302    2.539213
H      -2.940833    0.579379   -0.630863
