12

F      -0.025916    0.086610   -0.152862
C      -0.046229    1.414287   -0.008195
F       1.200536    1.871119   -0.153394
F      -0.782091    1.919738   -1.015059
C      -0.652272    1.831356    1.321265
C       0.101319    1.315055    2.542707
O       1.094085    0.630096    2.479087
C      -0.481248    1.720015    3.809732
C      -0.978907    2.065779    4.849485
H      -0.694128    2.924826    1.359390
H      -1.687517    1.476852    1.360704
H      -1.402847    2.360471    5.779209
