16

C       0.001302    1.487046    0.145984
C       1.401651    2.084445   -0.101241
C       2.077016    1.499795   -1.338044
N       3.079926    0.441041   -1.086777
C       1.774237    0.094816   -1.707662
C       0.792415   -0.649218   -0.878148
C      -0.028700   -0.011071   -0.043661
H      -0.331848    1.741485    1.158292
H      -0.733163    1.950750   -0.529359
H       1.332567    3.174101   -0.186168
H       2.037704    1.866450    0.762116
H       2.285099    2.193632   -2.148731
H       3.793824    0.469944   -1.812240
H       1.794378   -0.170058   -2.763386
H       0.749962   -1.729956   -0.985105
H      -0.761530   -0.572514    0.530570
