19

C       0.034517    1.578204    0.181940
C      -0.004375    0.056483    0.071011
C       0.886584   -0.551821   -1.071710
N       1.715236   -1.148509   -0.022444
C       1.014475   -0.633769    1.037338
O       1.157091   -0.693879    2.228711
C      -1.376592   -0.583512    0.150010
C      -2.511790    0.010334    0.894824
N      -2.545260   -0.058616   -0.579115
H       1.051916    1.946429    0.020848
H      -0.609813    2.066205   -0.557757
H      -0.275482    1.900024    1.179538
H       0.382087   -1.279036   -1.715165
H       1.407511    0.187917   -1.688526
H       2.566096   -1.690181   -0.059405
H      -1.329118   -1.671248    0.115546
H      -3.220252   -0.638769    1.400930
H      -2.374563    0.978618    1.365924
H      -2.336151    0.859641   -0.963733
