18

O      -0.089959    1.440454    0.067469
C       0.032101    0.030269    0.050596
C       0.627161   -0.585896    1.330874
C       0.075393   -2.013834    1.309524
C      -1.410102   -1.797314    0.913439
O      -2.188142   -1.392072    2.035182
C      -1.379157   -0.589195   -0.062610
C      -1.999555   -3.010512    0.313840
N      -2.451838   -3.979138   -0.125856
H       0.794568    1.819441    0.056468
H       0.637928   -0.287481   -0.812565
H       1.719572   -0.546478    1.362709
H       0.232913   -0.040539    2.194103
H       0.577196   -2.614312    0.542398
H       0.161940   -2.550520    2.258491
H      -2.209137   -2.118619    2.669226
H      -2.124082    0.135438    0.271493
H      -1.622044   -0.883445   -1.084249
