22

O       0.064633    1.234605    1.345899
C       0.140952   -0.054069    0.755439
C      -1.255775   -0.659435    0.765640
C      -1.305716   -2.051998    0.123413
C      -2.715060   -2.620021    0.122159
C      -3.054544   -4.126422   -0.029536
C      -2.577656   -4.264291    1.431327
N      -3.386758   -2.953159    1.484574
C      -4.397403   -3.727620    0.617843
H       0.947718    1.614761    1.353960
H       0.514426    0.004265   -0.281042
H       0.834062   -0.707012    1.311845
H      -1.614857   -0.716781    1.798548
H      -1.932768    0.023686    0.238045
H      -0.972801   -1.991346   -0.922289
H      -0.596320   -2.716922    0.627558
H      -3.362674   -1.951393   -0.458876
H      -2.870958   -4.790801   -0.882341
H      -3.018120   -5.062099    2.035812
H      -1.518488   -4.151988    1.663690
H      -5.074832   -3.081097    0.052697
H      -4.945650   -4.491672    1.175222
