18

O      -0.073366    1.424761   -0.074410
C       0.029098    0.010761    0.009488
C      -1.390925   -0.546161    0.025052
C      -1.435197   -2.037122    0.083938
C      -2.616898   -3.042770   -0.016103
C      -1.746534   -4.103754    0.671700
C      -1.709102   -3.931865   -0.823820
N      -0.553090   -2.936834   -0.752449
C      -0.595741   -3.072867    0.753180
H       0.815142    1.783892   -0.151166
H       0.575002   -0.411018   -0.845774
H       0.560005   -0.294965    0.925559
H      -1.931639   -0.125422    0.882466
H      -1.910389   -0.199681   -0.877554
H      -3.692087   -2.933018   -0.012794
H      -2.047112   -4.939823    1.286331
H      -1.891030   -4.611882   -1.646511
H       0.299019   -3.005204    1.361413
