23

C       0.033965    1.421238    0.206708
O      -0.097768    0.058865    0.545333
C      -1.292944   -0.572177    0.116117
C      -2.521108   -0.018677    0.837503
C      -1.496356   -0.719032   -1.425762
C      -1.799611   -2.226386   -1.203805
C      -1.189902   -2.124513    0.222580
C       0.228984   -2.662430    0.316737
O       0.146873   -4.077670    0.181934
H       1.052238    1.717001    0.472366
H      -0.110911    1.594455   -0.869913
H      -0.667267    2.064044    0.757261
H      -2.715037    1.024362    0.568003
H      -3.412780   -0.595730    0.574445
H      -2.380545   -0.078304    1.921554
H      -2.273659   -0.107007   -1.890600
H      -0.556775   -0.563815   -1.962263
H      -2.869915   -2.445159   -1.193703
H      -1.310034   -2.935719   -1.873045
H      -1.783651   -2.570870    1.026053
H       0.856749   -2.223275   -0.472688
H       0.672845   -2.374554    1.279983
H       1.039799   -4.431542    0.223826
