18

C       0.016449    1.440801    0.081198
N       0.046741    0.002399   -0.159145
C      -1.233679   -0.708267   -0.122514
C      -1.487227   -1.599632   -1.336291
O      -0.681140   -2.763471   -1.340322
C       0.681758   -2.495657   -1.376635
O       1.207323   -1.998206   -0.149309
C       1.238818   -0.643354    0.069981
O       2.249260   -0.107582    0.450910
H       1.026122    1.832402   -0.029044
H      -0.647019    1.923033   -0.643217
H      -0.337082    1.677368    1.093712
H      -1.317213   -1.314750    0.788142
H      -2.019510    0.051009   -0.086923
H      -2.522030   -1.953300   -1.320088
H      -1.328027   -1.019063   -2.258755
H       1.180586   -3.452459   -1.535168
H       0.927214   -1.789137   -2.184148
