18

C       0.004334    1.550946    0.214269
C       1.506862    1.586683   -0.287104
C       1.244436    0.181404   -0.872508
N       0.418826    0.081213   -2.132631
C      -0.181388   -0.920778   -1.200521
C       1.288861   -1.385425   -0.808681
O       1.326646   -1.837270    0.509494
C       0.470721   -0.895632    1.203798
C       0.013141   -0.008375    0.062597
H      -0.177764    1.908642    1.229357
H      -0.683443    2.075063   -0.451587
H       1.796557    2.369457   -0.993047
H       2.216356    1.578255    0.543799
H      -0.205167    0.888460   -2.200624
H      -1.012952   -1.570073   -1.492337
H       1.890162   -2.006392   -1.470858
H      -0.334943   -1.446326    1.703423
H       1.054320   -0.363507    1.965872
