18

O       0.158355    1.285821   -0.350362
C       0.072131   -0.082917   -0.028782
C       0.159015   -0.406036    1.538252
C      -1.392827   -0.369704    1.550816
C      -2.327814    0.841649    1.546860
C      -2.854153   -0.108385    0.470569
N      -2.617210   -1.372573    1.376666
C      -1.838812   -2.026014    0.236676
C      -1.410021   -0.575492    0.041526
H       1.061972    1.576384   -0.186896
H       0.734279   -0.689355   -0.664077
H       0.589190   -1.391628    1.732266
H       0.667688    0.335901    2.160883
H      -2.964973    0.974398    2.425804
H      -1.898703    1.780362    1.195173
H      -3.770218   -0.062531   -0.127282
H      -1.097895   -2.754235    0.585267
H      -2.480712   -2.481984   -0.524864
