16

C      -0.102841    1.539231    0.077037
C      -0.020075    0.014863   -0.003136
C      -1.389796   -0.645673    0.153581
C       0.866132   -0.547184   -1.147058
O       1.816643   -1.072903   -0.168273
C       1.062320   -0.591806    0.880883
N       1.245039   -0.656104    2.119319
H       0.881445    2.001584   -0.043942
H      -0.765076    1.932164   -0.702085
H      -0.499190    1.844806    1.049598
H      -2.078583   -0.297068   -0.623611
H      -1.319888   -1.735549    0.086433
H      -1.819094   -0.396991    1.128366
H       0.433477   -1.355605   -1.742485
H       1.344459    0.190833   -1.796522
H       2.106376   -1.155525    2.347642
