16

N       0.626601    0.005927   -0.601930
C      -0.297697    0.217287    0.363137
O      -0.319042    1.176045    1.109598
C      -1.413594   -0.844298    0.449952
N      -1.037246   -2.198381    0.091428
C      -0.924330   -3.271777    0.910542
C      -0.517334   -4.335514    0.130794
C      -0.403495   -3.795553   -1.163273
N      -0.722024   -2.501872   -1.187756
H       1.333007    0.708490   -0.745451
H       0.528094   -0.766740   -1.246105
H      -1.773011   -0.842823    1.478490
H      -2.233797   -0.522167   -0.200184
H      -1.144879   -3.196521    1.963621
H      -0.335828   -5.348008    0.451404
H      -0.111469   -4.289595   -2.078348
