21

C       0.162113    1.491322   -0.214976
C      -0.100166    0.019704    0.132031
C       0.653001   -0.462324    1.345667
C       0.523155    0.161194    2.736383
C       1.581949   -0.737110    3.412015
C       1.070639   -2.159318    3.088370
C       1.002046   -1.940228    1.582484
C       2.093676   -0.926313    1.312283
O       2.717722   -0.599068    2.540011
H       1.228269    1.670937   -0.388153
H      -0.381303    1.783160   -1.118917
H      -0.158499    2.155880    0.593550
H      -1.177425   -0.133858    0.283703
H       0.171833   -0.608125   -0.726349
H       0.809887    1.216251    2.759703
H      -0.472280    0.045227    3.176220
H       1.873739   -0.512943    4.435793
H       1.790926   -2.930361    3.376189
H       0.102603   -2.374053    3.549945
H       0.735618   -2.714026    0.874600
H       2.746782   -0.907117    0.450880
