12

N       0.003121    1.398930    0.154713
C      -0.031505    0.013535    0.051099
C      -1.131386   -0.828874    0.022654
N      -0.608882   -2.098687   -0.011872
C       0.748031   -1.980975    0.001218
N       1.123517   -0.709099    0.035687
C       1.600243   -3.112124   -0.025895
N       2.262220   -4.062496   -0.051078
H       0.909943    1.766159   -0.101110
H      -0.736629    1.874415   -0.342369
H      -2.191854   -0.644586    0.031687
H      -1.127860   -2.960911   -0.041145
