21

C       0.312950    1.505088   -0.219539
C       0.058464    0.043451    0.090589
O       0.661779   -0.841122   -0.887555
C       1.372358   -1.575553    0.124277
C       2.872146   -1.305244    0.111900
O       3.033074   -0.023587    0.712646
C       2.075159    0.054810    1.760943
C       0.816251   -0.664981    1.256802
C      -0.045306   -1.263627    2.355595
H       1.384454    1.707178   -0.284090
H      -0.145353    1.760678   -1.180228
H      -0.133389    2.148504    0.547143
H      -1.023774   -0.144325    0.145350
H       1.113799   -2.640279    0.124847
H       3.398747   -2.080459    0.694269
H       3.290326   -1.266751   -0.896840
H       2.449290   -0.448691    2.668585
H       1.922670    1.111931    1.995048
H      -0.464040   -0.480719    2.999252
H      -0.883311   -1.831011    1.939202
H       0.535337   -1.938836    2.993638
