19

C       0.059855    1.282203   -0.416308
C      -0.001437   -0.185993   -0.006613
O       0.685301   -0.445152    1.215093
C      -1.436337   -0.682803    0.123292
O      -2.257169   -0.465244   -1.062854
C      -2.654307   -1.848830   -1.105259
C      -1.718520   -2.712827   -1.958914
O      -0.825473   -2.911199   -0.829956
C      -1.706507   -2.199193    0.058053
H       1.099905    1.603145   -0.519786
H      -0.458873    1.437046   -1.366007
H      -0.424261    1.918563    0.336334
H       0.504862   -0.805458   -0.752977
H       0.380971    0.198712    1.864638
H      -1.914822   -0.213864    0.998579
H      -3.735099   -1.986440   -1.158819
H      -2.143688   -3.666935   -2.295347
H      -1.239307   -2.195196   -2.796285
H      -1.929780   -2.749449    0.972368
