14

N      -0.132421    0.927354    0.987077
C      -0.105309   -0.058317    0.220239
C      -1.136842   -1.006281   -0.347842
C       0.075212   -1.659713   -1.050773
O       0.970726   -0.657975   -0.429813
C       0.490174   -3.032761   -0.500127
O      -0.218489   -3.717423    0.183449
C       0.138066   -1.654510   -2.495464
C       0.196746   -1.715853   -3.694479
H       0.798083    1.321035    1.135240
H      -1.625672   -1.659640    0.375434
H      -1.870229   -0.546530   -1.009100
H       1.523652   -3.323074   -0.777860
H       0.242998   -1.749447   -4.755842
