23

C       0.014901    1.561844    0.011741
C       0.012328    0.025251    0.002007
C      -1.441190   -0.487433    0.000708
C       0.724588   -0.575744   -1.229974
C       2.184772   -0.318116   -1.507540
C       1.771384   -1.568594   -0.769919
C       1.773429   -1.578196    0.748977
C       2.188807   -0.337137    1.501249
C       0.727882   -0.591278    1.224376
H       1.032076    1.963159    0.012975
H      -0.499182    1.959666   -0.870201
H      -0.496904    1.948436    0.899978
H      -1.983574   -0.129263   -0.881071
H      -1.469702   -1.581998   -0.006196
H      -1.981199   -0.140491    0.888415
H       0.094761   -0.788221   -2.088748
H       2.508084   -0.437769   -2.536700
H       2.712376    0.469134   -0.983412
H       1.902585   -2.522857   -1.267434
H       1.905977   -2.538667    1.234034
H       2.514885   -0.469809    2.527937
H       2.715001    0.456708    0.985723
H       0.100347   -0.814607    2.082073
