17

C      -0.006479    1.478562   -0.016805
C       0.027704   -0.024926   -0.058224
C       0.569543   -0.942531   -1.177241
C       0.065723   -1.918691   -0.099736
C       0.543217   -0.996350    1.072494
C      -0.831889   -1.043004    1.767055
C      -1.159732   -1.012764    0.261365
H       1.003832    1.897281   -0.087529
H      -0.592306    1.881965   -0.850549
H      -0.454956    1.843454    0.914019
H       0.025909   -0.931617   -2.128760
H       1.650643   -0.915992   -1.354899
H       0.074390   -3.009637   -0.095863
H       1.542057   -0.987677    1.514080
H      -1.078960   -1.964459    2.304394
H      -1.122418   -0.169070    2.359336
H      -2.132028   -1.023108   -0.235915
