21

C       0.069629    1.493706   -0.002612
C      -0.021812   -0.000440   -0.024107
C      -0.122296   -0.769371   -1.115870
C      -0.069659   -2.212123   -0.755205
O       1.175316   -2.592662   -0.108569
C       0.050593   -2.272138    0.707874
C       0.030551   -0.840987    1.262973
C       1.287768   -0.550316    2.100988
C      -1.243671   -0.638809    2.103478
H       1.039796    1.829295    0.384260
H      -0.050819    1.909561   -1.006432
H      -0.695883    1.939452    0.643984
H      -0.182831   -0.405896   -2.135223
H      -0.522139   -2.989618   -1.362815
H      -0.337277   -3.088520    1.314430
H       2.188436   -0.755075    1.517280
H       1.313420    0.492394    2.433478
H       1.307718   -1.182433    2.995333
H      -1.230263   -1.291871    2.983613
H      -1.324926    0.392706    2.459812
H      -2.142495   -0.867915    1.522206
