21

C       0.043998    1.434200    0.063209
C       0.000677   -0.078043   -0.019591
C       0.201165   -0.682065   -1.462304
C      -1.120559   -1.430577   -1.304191
C      -1.226767   -2.193635   -0.000506
C      -0.106757   -2.828648    0.809308
C       1.153177   -1.950553    0.916926
O       0.877341   -0.560898    0.990443
C      -1.409162   -0.707717    0.016808
H       1.050377    1.801172   -0.160187
H      -0.660078    1.880458   -0.644874
H      -0.223100    1.761115    1.073145
H       0.128629    0.111732   -2.210486
H       1.106003   -1.259912   -1.666098
H      -1.813829   -1.634754   -2.111829
H      -2.163867   -2.742668    0.063535
H      -0.503890   -3.010189    1.815939
H       0.175577   -3.806943    0.401515
H       1.702375   -2.190643    1.831916
H       1.829403   -2.156253    0.075322
H      -2.308832   -0.211906    0.362310
