23

C       0.027380    1.374004   -0.086087
O      -0.075738   -0.023878    0.019064
C       0.702065   -0.552858    1.072067
C       0.550703   -2.067984    1.059986
C       1.272718   -2.754776    2.217006
C       1.139206   -4.283029    2.160556
O       1.773300   -4.807569    1.011354
O       2.660656   -2.409854    2.124556
C       3.367407   -2.457372    3.347251
H       1.063801    1.695913   -0.277473
H      -0.599612    1.688332   -0.924297
H      -0.322353    1.881734    0.827772
H       1.759873   -0.274180    0.952884
H       0.364981   -0.138972    2.040362
H      -0.514858   -2.317923    1.115053
H       0.924148   -2.469493    0.113512
H       0.870136   -2.390807    3.176719
H       1.554425   -4.725120    3.081076
H       0.082491   -4.567081    2.112732
H       2.618690   -4.344388    0.950180
H       4.392317   -2.141672    3.137139
H       2.929874   -1.772992    4.089001
H       3.395418   -3.465910    3.783467
