13

O      -0.080790    1.433530   -0.001490
C       0.044111    0.024287    0.033574
C       0.614460   -0.552587    1.314633
C      -0.333391   -1.277388    1.913885
N      -1.528280   -1.292557    1.184527
C      -1.434860   -0.533269    0.038324
O      -2.289975   -0.316771   -0.773093
C       0.772034   -0.473947   -1.147635
N       1.383377   -0.844983   -2.055830
H       0.805137    1.814656   -0.003693
H       1.629297   -0.406534    1.649242
H      -0.277791   -1.828177    2.842090
H      -2.389546   -1.724337    1.475690
