20

O      -0.069511    1.404844    0.035932
C      -0.030959    0.007619   -0.216756
C      -1.282009   -0.696685    0.311106
C      -1.257186   -2.192039    0.139379
N      -0.257350   -2.805228   -0.338699
O      -2.440483   -2.725959    0.576532
C      -2.561978   -4.125103    0.565560
C      -3.953644   -4.649558    0.432347
C      -2.972885   -4.813078   -0.709765
H      -0.768362    1.784548   -0.505703
H       0.104297   -0.212600   -1.284057
H       0.853849   -0.373182    0.298106
H      -1.413563   -0.464544    1.374627
H      -2.180977   -0.310935   -0.189052
H      -0.412015   -3.810789   -0.397611
H      -1.869264   -4.627641    1.236425
H      -4.230193   -5.520132    1.015493
H      -4.737976   -3.911389    0.312206
H      -3.115433   -4.183004   -1.579982
H      -2.569749   -5.797510   -0.920202
