16

C       0.093631    1.486317    0.182025
C      -0.017183   -0.030947   -0.065771
C      -1.433920   -0.522497   -0.038800
C      -2.116110   -0.876696   -1.141766
N      -3.444438   -1.310775   -1.109091
N      -4.093250   -1.414172   -0.076245
O      -3.430364   -1.068189    1.192104
C      -2.131515   -0.632267    1.246290
N      -1.568107   -0.350467    2.349914
H       1.143006    1.791767    0.145682
H      -0.451610    2.050641   -0.580730
H      -0.308314    1.742396    1.163762
H       0.427469   -0.283870   -1.033908
H       0.542527   -0.558083    0.713017
H      -1.689458   -0.848642   -2.136472
H      -2.208431   -0.497762    3.131571
