13

C      -0.030829    1.477095    0.020141
N      -0.006933    0.020779    0.056055
N      -0.047551   -0.610785   -1.166601
N      -0.031309   -1.862127   -1.239478
C       0.029992   -2.723761   -0.071678
O       0.041885   -3.921991   -0.232101
C       0.072212   -2.041243    1.208061
C       0.051456   -0.696802    1.206141
F       0.085358    0.040117    2.304914
H       0.873096    1.890664    0.474177
H      -0.078349    1.755754   -1.031858
H      -0.906744    1.863270    0.547314
H       0.118828   -2.602277    2.130486
