18

O       0.052617    1.457091   -0.329795
C       0.001862    0.042583   -0.270139
C      -1.376031   -0.470588    0.180662
C      -1.440059   -1.966186    0.216087
N      -1.544547   -2.805931   -1.035376
C      -2.543644   -2.979254    0.026163
C      -1.917652   -3.973907    1.013156
C      -0.819455   -2.894326    1.241621
O       0.039466   -2.745771    2.062445
H       0.044818    1.792137    0.572332
H       0.215547   -0.310652   -1.284212
H       0.778199   -0.369556    0.389672
H      -1.589873   -0.079651    1.184483
H      -2.146117   -0.069076   -0.489421
H      -1.942921   -2.182573   -1.740243
H      -3.595574   -2.782440   -0.134912
H      -2.489741   -4.135474    1.931063
H      -1.601414   -4.928726    0.588794
