17

C      -0.091469    1.541029    0.036198
C       0.075888    0.055804    0.017561
N      -0.827766   -0.887499    0.717527
C       0.625592   -0.897179    1.006335
C       1.362098   -1.686408   -0.132711
N       0.341423   -2.138995   -1.126735
C       0.784608   -0.737865   -1.136551
C       2.658054   -2.249047   -0.041543
C       3.759589   -2.724329    0.067181
H       0.825256    2.044513   -0.290744
H      -0.902872    1.858632   -0.629356
H      -0.324673    1.895036    1.046055
H      -1.264073   -0.360278    1.475716
H       1.026214   -0.738330    1.998988
H       0.864321   -2.617672   -1.861883
H       1.268680   -0.288196   -1.994453
H       4.730305   -3.144958    0.156220
