15

C       0.033841    1.444425    0.292890
C      -0.031519   -0.021885    0.063489
N      -1.044275   -0.822938    0.214353
C      -0.505850   -2.041816   -0.137896
N       0.754954   -2.003616   -0.482361
O       1.078325   -0.648592   -0.349805
C      -1.318478   -3.279067   -0.129174
C      -1.183188   -4.302364   -1.182826
O      -0.639950   -4.508609    0.115173
H       0.773845    1.680577    1.063454
H       0.331023    1.964987   -0.622310
H      -0.945225    1.801383    0.611126
H      -2.275177   -3.161076    0.375140
H      -2.044749   -4.917357   -1.438953
H      -0.453078   -4.141591   -1.973335
