13

O      -0.101081    1.338772   -0.013667
N       0.026661   -0.068749   -0.042451
C      -1.125069   -0.625434    0.019943
C      -1.263724   -2.143504   -0.001226
N      -2.715020   -2.340675   -0.163868
C      -3.332637   -1.116391    0.026199
C      -2.468571   -0.079410    0.094548
H       0.816513    1.621538   -0.076867
H      -0.703569   -2.602821   -0.820329
H      -0.910527   -2.582712    0.940683
H      -3.125488   -3.149107    0.279070
H      -4.414711   -1.079439    0.058082
H      -2.711673    0.968419    0.136778
