17

C      -0.093725    1.487462    0.054320
C      -0.013799    0.036596    0.000750
C       0.042728   -1.166015   -0.041799
C       0.138399   -2.590803   -0.100731
C       1.276140   -3.408962    0.587720
C       0.900254   -4.520882   -0.386426
C      -0.620919   -4.369899   -0.566835
O      -1.069922   -3.328352    0.295466
C       0.297220   -3.529789   -1.376819
H       0.544591    1.894396    0.846121
H       0.222381    1.936055   -0.893921
H      -1.120243    1.815634    0.250673
H       2.257869   -2.987147    0.362502
H       1.155314   -3.570378    1.663013
H       1.428929   -5.439941   -0.602187
H      -1.302581   -5.168167   -0.826411
H       0.432482   -3.342238   -2.432433
