18

C      -0.198711    1.365859    0.071912
O       0.296425    0.062978   -0.160969
C       0.782561   -0.561075    0.986565
C      -0.155226   -1.345360    1.954188
C      -0.988425   -2.232190    1.009682
C       0.189169   -2.752711    0.125051
C       1.326046   -1.993840    0.836424
O       1.002998   -2.184141    2.250070
H       0.577075    2.021478    0.495270
H      -0.516598    1.769427   -0.891925
H      -1.059495    1.362505    0.756529
H       1.477692    0.074904    1.548343
H      -0.623132   -0.911503    2.837734
H      -1.496828   -3.027939    1.557348
H      -1.725525   -1.659501    0.442093
H       0.332034   -3.832482    0.197373
H       0.093983   -2.468715   -0.924771
H       2.361444   -2.215933    0.580058
