19

C      -0.128685    1.313685   -0.149247
C       1.326127    0.913833    0.003503
C       2.126236    1.198648    1.220720
C       1.761351    1.148349    2.505203
C       0.399172    0.749700    3.030434
C      -0.052261   -0.618083    2.538215
O      -1.321546   -0.722400    1.886305
C      -0.138281   -1.001487    1.119145
C       0.214451   -0.142416   -0.055145
H      -0.631167    1.771226    0.691945
H      -0.444107    1.697592   -1.112852
H       1.907436    0.984630   -0.910308
H       3.151475    1.496084    1.010703
H       2.506622    1.414339    3.249926
H       0.419047    0.735568    4.124423
H      -0.361679    1.489560    2.759873
H       0.144268   -1.430361    3.240180
H      -0.013579   -2.065243    0.910040
H       0.176809   -0.689137   -0.992469
