17

O       0.131471    1.351884   -0.144073
C       0.012340   -0.029281    0.005209
C       0.466751   -0.594416    1.376683
O      -0.197185    0.208644    2.381771
C      -1.604168    0.073949    2.339022
O      -2.135751    0.230573    1.038082
C      -1.439866   -0.572819    0.055124
C      -1.192829   -1.991067    0.537555
C      -0.093330   -2.003518    1.299677
H      -0.366135    1.749848    0.580651
H       0.571120   -0.497840   -0.808611
H       1.532176   -0.510918    1.591030
H      -1.902851   -0.897829    2.754088
H      -2.016959    0.881370    2.947742
H      -2.013056   -0.470754   -0.866333
H      -1.843219   -2.830337    0.323879
H       0.322065   -2.854856    1.824757
