16

N       0.040487    1.418881    0.076579
C       0.002212    0.011719    0.016939
C      -1.186145   -0.714298    0.051678
C      -1.175771   -2.108190    0.027444
C       0.034858   -2.787925   -0.044987
C       1.230507   -2.071239   -0.065277
C       1.231871   -0.678757   -0.026568
N       2.413584    0.086467   -0.082136
H       0.709938    1.808551   -0.579021
H      -0.866789    1.842448   -0.068173
H      -2.129733   -0.176265    0.089405
H      -2.112823   -2.653547    0.052224
H       0.056945   -3.871822   -0.072816
H       2.181094   -2.596809   -0.102984
H       3.247235   -0.468158    0.062520
H       2.396757    0.859155    0.575498
