18

O      -0.121533    1.485452    0.097649
C      -0.032581    0.091302    0.019772
C      -0.505714   -0.743268    1.182232
C      -1.332594   -0.657136   -0.088870
C      -2.621506    0.097172   -0.094056
C      -3.535912    0.050722   -1.279594
C      -3.956890   -0.639817    0.011958
C      -3.983205   -2.073496    0.068735
N      -3.997323   -3.229904    0.116483
H       0.552412    1.791404    0.713405
H       0.807113   -0.278907   -0.567868
H       0.001876   -1.673105    1.412511
H      -0.879990   -0.200910    2.044632
H      -1.321289   -1.537865   -0.723738
H      -2.587871    1.036012    0.446724
H      -4.084786    0.941995   -1.560295
H      -3.260443   -0.592753   -2.107618
H      -4.735823   -0.162405    0.596662
