18

O      -0.102105    1.367489    0.045640
N       0.044966   -0.022685    0.206206
C      -1.039984   -0.625714   -0.043922
C      -2.445748   -0.232613   -0.449160
C      -2.815725   -1.754090   -0.431787
O      -3.041436   -2.352229   -1.689762
C      -1.777460   -2.597198   -2.304196
C      -0.822915   -2.967847   -1.156957
C      -1.347858   -2.111507    0.007330
H       0.776517    1.692052    0.270569
H      -2.968398    0.381216    0.290857
H      -2.540071    0.251825   -1.425493
H      -3.640320   -2.029114    0.227253
H      -1.915917   -3.393706   -3.039311
H      -1.420601   -1.700546   -2.833738
H      -0.924852   -4.028207   -0.906899
H       0.223874   -2.765668   -1.393665
H      -1.207361   -2.579730    0.983215
