17

C       0.123960    1.481691    0.080902
C      -0.035014   -0.033467   -0.037684
C       0.733814   -0.614865   -1.287488
C       1.933915   -1.222881   -0.627198
C       1.756377   -1.233409    0.728688
N       2.840182   -1.853590    1.219605
N       3.681986   -2.207101    0.175563
N       3.106348   -1.826600   -0.930439
N       0.540564   -0.735833    1.171703
H       1.183381    1.758940    0.109927
H      -0.335940    1.983266   -0.776329
H      -0.360303    1.862923    0.987061
H      -1.097772   -0.284142   -0.093562
H       0.122896   -1.360818   -1.808470
H       0.961230    0.178245   -2.007058
H       3.117668   -2.065926    2.162798
H       0.567572   -0.144568    1.994448
