17

C       0.074549    1.232933   -0.234389
C      -0.080973   -0.277341    0.041084
C       0.586639   -0.668563    1.342249
C       1.334868   -1.919732    1.489821
O       2.015486   -0.672538    1.316540
C      -1.553665   -0.672547    0.051985
O      -2.133615   -1.043800    1.050037
C      -2.241366   -0.567959   -1.226491
C      -2.795254   -0.490749   -2.292644
H       1.137047    1.486329   -0.261021
H      -0.376807    1.508946   -1.190536
H      -0.401795    1.823524    0.554873
H       0.401875   -0.821231   -0.781198
H       0.152090   -0.224387    2.236766
H       1.435872   -2.376385    2.472728
H       1.403992   -2.608839    0.648893
H      -3.301008   -0.426993   -3.225710
