18

C       0.246410    1.496343    0.090954
O       1.146513    0.429714   -0.208503
C      -0.218932    0.102624    0.080876
C      -0.467763   -0.664524    1.332118
C      -1.832437   -0.854719    2.068119
C      -0.787265   -1.648060    2.903892
C      -0.226368   -2.191657    1.560142
C       0.171063   -0.433891    2.735359
H       0.417139    1.997247    1.042545
H       0.001195    2.152520   -0.743323
H      -0.784474   -0.234401   -0.790572
H      -2.263296    0.036589    2.533425
H      -2.593521   -1.442066    1.546213
H      -0.971527   -2.214728    3.816451
H      -0.868878   -2.876956    0.999634
H       0.815335   -2.522660    1.555676
H       1.242039   -0.633034    2.818433
H      -0.110196    0.485745    3.257000
