21

C      -0.013389    1.461475    0.010238
C       1.321638    0.735165   -0.006863
C       0.038793   -0.032481    0.001625
C      -0.557641   -0.970655    1.059465
C      -1.665899   -1.295056    0.011592
C      -0.578486   -0.959198   -1.054354
C       0.333039   -2.184089   -1.216658
O       0.399270   -2.947666   -0.017730
C       0.356776   -2.197136    1.190476
H      -0.305367    1.964657    0.927279
H      -0.323338    1.974537   -0.895359
H       1.904428    0.764745   -0.922661
H       1.922376    0.754877    0.897532
H      -0.832353   -0.563165    2.036230
H      -2.082910   -2.304311    0.010234
H      -2.464327   -0.551152    0.023498
H      -0.872362   -0.541174   -2.021038
H      -0.057124   -2.868421   -1.978578
H       1.338544   -1.861296   -1.533078
H       1.368359   -1.877685    1.490487
H      -0.018361   -2.889728    1.952479
