13

O       0.024022   -0.025072    0.216687
C       0.003951    1.157500    0.022205
N      -1.188198    1.880982   -0.069278
C      -1.241586    3.256018   -0.024002
C      -0.134130    3.975751   -0.274295
C       1.104804    3.204277   -0.663389
O       1.127989    1.894227   -0.064356
C      -0.107664    5.388688   -0.222051
N      -0.048643    6.546688   -0.196882
H      -2.012229    1.332923    0.121131
H      -2.198156    3.697843    0.224728
H       1.172478    3.089272   -1.753858
H       2.013931    3.697195   -0.315995
