19

C      -0.153504    1.528312    0.060138
C      -0.017566    0.011014    0.037108
C       0.793337   -0.550647   -1.151994
C       2.129314   -0.355373   -0.369145
C       2.630596   -1.722419   -0.872606
C       1.110710   -2.084990   -0.875702
C       0.879523   -2.061851    0.635931
O       0.562734   -2.936563    1.393906
C       1.170074   -0.582786    0.879128
H       0.802639    2.028294   -0.122951
H      -0.857875    1.863096   -0.709654
H      -0.530839    1.871911    1.028757
H      -0.993451   -0.452657    0.228751
H       0.644493   -0.244256   -2.187743
H       2.732888    0.549409   -0.391899
H       3.038004   -1.646013   -1.884440
H       3.297620   -2.325819   -0.248507
H       0.697568   -2.911132   -1.449638
H       1.393224   -0.256962    1.893001
