15

O      -0.081226    1.340635    0.008894
N       0.037301   -0.052361    0.004564
C      -1.107094   -0.626455    0.011251
C      -1.247227   -2.140851    0.008356
C      -2.778095   -2.393381    0.019116
C      -3.376142   -0.997298    0.026639
C      -2.436388   -0.031118    0.021959
C      -4.778732   -0.781200    0.037180
N      -5.929153   -0.640953    0.045877
H       0.838651    1.626307    0.003142
H      -0.770141   -2.572910   -0.874909
H      -0.756944   -2.577554    0.882046
H      -3.117937   -2.956104   -0.856574
H      -3.104957   -2.959862    0.897326
H      -2.617444    1.033492    0.025636
