15

C      -0.080101    1.344720   -0.091186
O      -0.018254   -0.063422   -0.009600
C       0.563613   -0.650582   -1.143910
C       0.628226   -2.161780   -0.893225
C       1.021711   -2.952129   -2.152219
O       1.045770   -2.468722   -3.249758
C       1.520775   -2.518519    0.209887
N       2.253824   -2.831633    1.046183
H       0.922671    1.788823   -0.179083
H      -0.683167    1.674894   -0.950631
H      -0.547024    1.700063    0.829478
H      -0.031860   -0.471577   -2.050398
H       1.575218   -0.258065   -1.329606
H      -0.381978   -2.502984   -0.618603
H       1.266387   -4.018043   -1.967448
