18

C      -0.001226    1.472139    0.113466
C       0.073858   -0.017427    0.109438
C      -0.700912   -0.968404    0.991951
C       0.810748   -1.051344    0.920487
C       1.237895   -1.641416   -0.416529
O       0.408676   -0.678584   -1.122556
O       1.658211   -0.884689    2.005913
C       1.545957   -1.788604    3.013346
N       2.334055   -1.724929    3.993675
H       0.912501    1.905576   -0.303246
H      -0.850551    1.816171   -0.486646
H      -0.131295    1.843513    1.133550
H      -1.072560   -0.523313    1.910251
H      -1.328968   -1.740993    0.555940
H       2.299150   -1.475931   -0.631766
H       0.961770   -2.678393   -0.639823
H       0.732628   -2.507502    2.856999
H       2.116231   -2.460209    4.663169
