17

N       0.253852    1.440349    0.165606
C       0.078082    0.016475    0.029130
C      -1.365309   -0.628735   -0.052325
C      -1.385506   -0.189448   -1.549563
C       0.116754   -0.566517   -1.424768
O       0.084184   -1.982473   -1.198551
C      -0.975029   -2.098716   -0.207757
C       1.117589   -0.199394   -2.403611
N       1.900364    0.142084   -3.181341
H      -0.456881    1.973877   -0.322615
H       0.208063    1.706540    1.143127
H       0.777977   -0.487452    0.700968
H      -2.160336   -0.375191    0.647259
H      -1.970269   -0.777830   -2.258927
H      -1.563060    0.875135   -1.700187
H      -0.574357   -2.545176    0.708916
H      -1.774775   -2.736654   -0.599571
