17

O       0.001945    1.290443   -0.299200
C      -0.059000   -0.122517   -0.112353
C      -1.524256   -0.462920    0.129419
O      -1.994730    0.261563    1.242074
C      -2.390050   -0.419749   -1.170120
C      -2.255241   -1.964293   -1.266363
C      -1.789963   -1.983469    0.216330
H       0.919706    1.570076   -0.245859
H       0.327255   -0.659012   -0.991512
H       0.525736   -0.429604    0.767250
H      -1.635221    1.153523    1.147176
H      -3.408261   -0.112462   -0.920830
H      -2.022926    0.187551   -2.000565
H      -3.158478   -2.527706   -1.507667
H      -1.464899   -2.274068   -1.955377
H      -0.949087   -2.628502    0.488827
H      -2.615992   -2.170109    0.906644
