12

C       0.152896   -1.227986   -0.005920
C       0.049734   -0.028686    0.002201
C      -0.059299    1.370805    0.011493
C      -1.151557    2.236334    0.031834
N      -0.677341    3.523752    0.032238
N       0.619706    3.504081    0.013604
N       1.004955    2.218273    0.000944
C      -2.524334    1.914676    0.049652
C      -3.694910    1.638251    0.064796
H       0.230930   -2.287497   -0.012909
H       1.985814    1.984263   -0.014376
H      -4.729120    1.397318    0.078043
