21

O       0.201257    1.412537   -0.015437
C       0.132841    0.008917    0.171751
C      -1.255325   -0.451433   -0.260411
C      -1.445224   -1.953249   -0.083627
C      -1.664989   -2.516327    1.339648
O      -2.854410   -3.224606    0.928330
C      -2.816138   -2.614294   -0.391401
C      -4.056388   -1.753119   -0.581053
O      -5.212825   -2.551674   -0.416189
H       1.072745    1.712729    0.258422
H       0.898586   -0.513783   -0.425233
H       0.304916   -0.261963    1.227026
H      -1.997022    0.108531    0.319559
H      -1.397762   -0.170934   -1.310994
H      -0.641002   -2.485807   -0.600930
H      -0.901212   -3.198990    1.728326
H      -1.883327   -1.756489    2.102999
H      -2.798615   -3.389589   -1.167337
H      -4.050710   -0.911432    0.128595
H      -4.089840   -1.338401   -1.594514
H      -5.090954   -3.011823    0.424141
