15

N       0.054671    1.385631    0.042514
C      -0.045239    0.009742    0.076720
C      -1.207387   -0.683793   -0.072535
C      -1.220354   -2.119908    0.054495
O      -2.183973   -2.854369   -0.057184
N       0.049875   -2.686371    0.322420
C       1.247200   -2.023341    0.497888
N       2.396064   -2.499593    0.786375
N       1.133799   -0.644395    0.327819
H       0.905451    1.757485   -0.356390
H      -0.767312    1.852859   -0.309441
H      -2.137195   -0.185581   -0.304166
H       0.046169   -3.691139    0.417635
H       2.366912   -3.510147    0.894933
H       1.967711   -0.132667    0.570958
