20

C      -0.054673    1.599003   -0.014726
C      -0.046797    0.068831   -0.031489
C       0.755842   -0.513154   -1.212227
C       0.763292   -2.011539   -1.263890
C       1.750448   -2.860176   -0.868030
O       1.405271   -4.153830   -1.066253
C       0.144853   -4.145483   -1.600428
C      -0.296245   -2.865028   -1.749682
N      -1.480889   -2.408085   -2.350542
H       0.963226    1.997770    0.059942
H      -0.499672    2.004280   -0.930447
H      -0.626737    1.986461    0.834005
H       0.374611   -0.315762    0.904986
H      -1.079635   -0.303438   -0.066046
H       0.345390   -0.119661   -2.152065
H       1.787219   -0.145411   -1.151741
H       2.729259   -2.691779   -0.447868
H      -0.279625   -5.108395   -1.829717
H      -2.165809   -3.143265   -2.471235
H      -1.907252   -1.643971   -1.841298
