16

C      -0.079352    1.447326    0.157796
C      -0.016342   -0.050606   -0.039361
O       1.016394   -0.665028   -0.217080
C      -1.304290   -0.766129   -0.004581
C      -1.805780   -1.916207   -0.868635
C      -3.230512   -1.346549   -0.643248
C      -3.087854   -1.533588    0.823868
C      -1.660086   -2.106142    0.626682
N      -2.711591   -0.213105    0.203206
H       0.925672    1.868013    0.114372
H      -0.715366    1.901671   -0.610055
H      -0.548389    1.681193    1.120008
H      -1.298987   -2.411547   -1.683237
H      -4.099901   -1.244779   -1.280191
H      -3.818037   -1.614427    1.618970
H      -1.019870   -2.775409    1.181643
