21

C      -0.081591    1.539903   -0.017309
C       1.423368    1.919622    0.023746
C       2.133560    0.680932    0.615712
C       3.504025    0.316837    0.030540
C       3.945972   -1.088839    0.529983
O       2.911417   -1.817326    1.178288
C       1.693467   -1.836008    0.450065
C       1.151778   -0.437828    0.327815
C      -0.048109    0.025936   -0.014713
H      -0.620098    1.921467    0.862434
H      -0.594436    1.955665   -0.892038
H       1.781569    2.083464   -0.999387
H       1.618590    2.835956    0.587371
H       2.241279    0.785273    1.705508
H       3.425391    0.318454   -1.063209
H       4.262314    1.062241    0.292291
H       4.346216   -1.677467   -0.311516
H       4.737395   -1.005018    1.279861
H       1.849499   -2.285193   -0.547547
H       1.017394   -2.498377    1.000121
H      -0.919135   -0.580210   -0.242487
