21

O      -0.093621    1.400619   -0.065609
C       0.016589   -0.009007    0.100187
C      -1.384335   -0.589497   -0.006736
C      -2.076777   -0.423712   -1.398569
C      -2.410826   -1.902294   -1.690971
C      -1.075822   -2.612537   -1.332287
C      -1.460722   -2.125746    0.102915
O      -0.878934   -2.614175    1.271139
C      -2.940199   -2.396110   -0.314078
H       0.785648    1.780179    0.018876
H       0.674530   -0.442983   -0.669390
H       0.442511   -0.265816    1.080944
H      -1.984828   -0.136671    0.789464
H      -2.967690    0.207673   -1.350740
H      -1.401071    0.009316   -2.141750
H      -2.940773   -2.129939   -2.614617
H      -1.141671   -3.700648   -1.425519
H      -0.150710   -2.251644   -1.789005
H      -0.966435   -3.572574    1.278296
H      -3.729015   -1.821839    0.180748
H      -3.185750   -3.462210   -0.314708
