12

F       0.086647    0.003358   -0.010473
C       0.159807    1.319112    0.077846
F       1.379278    1.661422    0.520035
F       0.006972    1.849650   -1.146913
C      -0.918554    1.900110    1.027892
O      -1.656537    1.180036    1.641110
C      -0.953013    3.400140    1.080921
C      -2.276326    4.064229    1.107476
O      -1.489963    3.952228    2.277672
H      -0.101849    3.927923    0.657384
H      -2.364485    5.062092    0.681762
H      -3.167380    3.440239    1.083942
