19

C       0.177648    1.548818   -0.091540
C      -0.120213    0.055681    0.089857
C      -1.631215   -0.200416    0.196454
O       0.396279   -0.640942   -1.067438
C       1.266748   -1.704765   -0.679004
C       1.424884   -1.541119    0.818590
C       0.643063   -0.558346    1.240130
C       0.724697   -3.019619   -1.047469
C       0.296231   -4.103226   -1.342127
H       1.254569    1.716832   -0.172882
H      -0.301228    1.916962   -1.003671
H      -0.204363    2.128782    0.754965
H      -2.138511    0.178333   -0.695796
H      -1.829238   -1.271754    0.280518
H      -2.052930    0.303695    1.072550
H       2.226393   -1.571763   -1.202627
H       2.071275   -2.178297    1.407049
H       0.527168   -0.217249    2.261563
H      -0.087589   -5.057185   -1.607743
