17

O      -0.328411    0.015372    0.207394
C      -0.160505    1.165641   -0.093463
C       1.183569    1.882084   -0.004288
C       1.422451    2.803423   -1.223833
C       1.525481    2.070150   -2.483725
N       1.604384    1.474256   -3.470366
C       1.210184    2.697972    1.281297
C       1.559512    2.049546    2.567298
N       2.486885    3.010370    1.941243
H      -1.008225    1.809130   -0.427182
H       1.956020    1.107789    0.043339
H       0.605907    3.531244   -1.307003
H       2.339979    3.381431   -1.072183
H       0.506805    3.529521    1.298361
H       1.099903    2.390934    3.489587
H       1.806200    0.991503    2.545466
H       3.248354    2.507015    1.490414
