16

O      -0.159835    1.332364    0.422941
N      -0.012211   -0.061679    0.397594
C      -1.059432   -0.623771   -0.037420
C      -2.451348   -0.177565   -0.458930
C      -2.826790   -1.687656   -0.617339
O      -3.924911   -2.172017    0.084094
C      -2.478292   -2.295035   -1.991879
O      -1.108068   -2.526739   -1.585930
C      -1.364762   -2.091183   -0.228593
H       0.688708    1.622300    0.775874
H      -2.994918    0.308010    0.358313
H      -2.516984    0.449254   -1.352840
H      -4.695832   -1.640070   -0.141379
H      -3.004868   -3.238158   -2.183111
H      -2.549539   -1.641980   -2.869872
H      -1.068116   -2.822328    0.525035
