18

C      -0.157442    1.631929    0.012732
C       0.004390    0.100285   -0.006482
C       0.697544   -0.436501   -1.259954
C       1.728432   -1.213893   -0.935182
C       1.911704   -1.237449    0.542945
C       2.246220    0.087863    1.141944
N       0.856094   -0.383762    1.128779
C      -1.322337   -0.521538    0.120927
C      -2.413970   -1.020097    0.185735
H       0.804310    2.130295   -0.129103
H      -0.831481    1.946950   -0.787810
H      -0.585571    1.947084    0.967306
H       0.354198   -0.190712   -2.257265
H       2.374029   -1.743271   -1.625151
H       2.157536   -2.163833    1.054642
H       2.674488    0.151644    2.138831
H       2.561892    0.866367    0.453034
H      -3.373911   -1.468615    0.256399
