16

C       0.071139    1.534297    0.024720
C       0.006289    0.041088    0.023527
C      -1.074535   -0.774278    0.040846
N      -2.413877   -0.536847    0.102801
C      -0.621788   -2.204914    0.022948
O      -1.327146   -3.189212   -0.016195
N       0.755991   -2.146763    0.042145
C       1.207417   -0.810557    0.013744
N       2.408748   -0.387570   -0.018900
H       1.081075    1.859998   -0.232700
H      -0.628094    1.971025   -0.698755
H      -0.174972    1.953850    1.008237
H      -2.764357    0.362591   -0.183058
H      -2.995978   -1.331519   -0.120405
H       1.344974   -2.959889   -0.026363
H       3.082827   -1.154060   -0.019188
