17

C      -0.072655    1.575593    0.027683
C      -0.004596    0.044579    0.011073
C       0.805209   -0.527763   -1.144837
C       1.834955   -1.264752   -0.695339
C       1.799629   -1.261337    0.757976
N       2.472212   -1.752105    1.777779
C       1.792910   -1.281641    2.880649
C       0.709640   -0.507459    2.519751
N       0.727303   -0.504227    1.147685
H       0.933678    2.001922    0.040865
H      -0.595950    1.939000   -0.861511
H      -0.614614    1.929839    0.909649
H      -1.024414   -0.363717   -0.003444
H       0.545112   -0.326499   -2.174736
H       2.576930   -1.783659   -1.284482
H       2.115969   -1.524968    3.881946
H      -0.035232    0.009622    3.101143
