13

O       0.049975    1.366664    0.008544
C      -0.012843   -0.030938    0.001783
C      -1.469824   -0.460870    0.011291
O      -2.404365    0.301389    0.022737
C      -1.714350   -1.929657    0.005970
C      -2.877580   -2.639334    0.012057
N      -2.531241   -3.966959    0.002441
N      -1.281211   -4.104136   -0.008453
O      -0.696736   -2.794500   -0.006682
H       0.976231    1.624924    0.001192
H       0.460048   -0.485970   -0.885858
H       0.474279   -0.495112    0.876917
H      -3.898465   -2.300837    0.022168
