16

O       0.146515    1.328146    0.221631
C       0.081445   -0.006922    0.004072
C       0.028210   -0.815769   -1.098062
N      -0.019917   -2.138738   -0.695166
C      -0.001291   -2.127209    0.615263
N       0.064380   -0.840597    1.094974
C      -0.040764   -3.319250    1.482949
C      -1.005387   -4.414570    1.167503
N       0.428304   -4.594972    0.920425
H       0.160877    1.775765   -0.629953
H       0.029414   -0.533164   -2.139284
H       0.091751   -0.540808    2.055534
H       0.240893   -3.149972    2.520208
H      -1.415727   -5.020561    1.971229
H      -1.662101   -4.250897    0.318083
H       0.614753   -4.431667   -0.069032
