20

C       0.041954    1.455998    0.180001
C       1.570687    1.336383    0.007762
O       2.201049    0.999496    1.236387
C       1.361056    0.189737    2.065681
C       0.457761   -0.743241    1.227794
C       1.249885   -1.906915    0.612890
C       2.047496   -1.226462   -0.528436
C       1.235240    0.042342   -0.793719
N      -0.055943   -0.037723    0.012615
H      -0.359981    1.873815    1.105782
H      -0.439964    1.946469   -0.670102
H       2.161459    2.138893   -0.442706
H       2.023914   -0.379952    2.724332
H       0.742673    0.835043    2.704952
H      -0.377409   -1.087945    1.847337
H       1.882388   -2.416602    1.344114
H       0.551210   -2.641031    0.201271
H       3.059452   -0.969142   -0.204675
H       2.125321   -1.859960   -1.414726
H       1.019973    0.241703   -1.847252
