15

C      -0.166519    1.771464   -0.114099
C       0.120460    0.278153   -0.013444
O       0.916832    0.082363    1.151093
C       1.664431   -1.047363    1.221643
O       2.289576   -1.327260    2.197684
C      -1.105975   -0.661665    0.072813
N      -2.262392   -0.203758   -0.478020
O      -0.993096   -1.770836    0.552989
H       0.775277    2.323925   -0.086272
H      -0.665701    2.015234   -1.056882
H      -0.784401    2.110973    0.721816
H       0.682471   -0.046254   -0.902359
H       1.652556   -1.632555    0.286930
H      -2.398222    0.760131   -0.724208
H      -3.074518   -0.796117   -0.405207
