19

C      -0.095122    1.494635    0.041338
C       0.153290   -0.001040    0.054454
O       0.480158   -0.585910    1.068923
C      -0.030187   -0.706965   -1.248020
C       0.705293   -2.015634   -1.474040
C      -0.778833   -2.048383   -1.307110
C      -1.434277   -2.669955   -0.088492
C      -1.483655   -4.179212   -0.200679
O      -2.469969   -4.850131   -0.039192
H       0.592158    1.984879   -0.658002
H      -1.110711    1.707833   -0.311499
H       0.043922    1.904724    1.041902
H      -0.178667   -0.062683   -2.107823
H       1.134839   -2.190287   -2.453610
H       1.307735   -2.343551   -0.633321
H      -1.351241   -2.166469   -2.223542
H      -0.843318   -2.419932    0.801380
H      -2.453485   -2.300545    0.059098
H      -0.503839   -4.649334   -0.449683
