18

C      -0.141343    1.513421    0.336922
N       0.019738    0.072601    0.185857
C       1.314509   -0.440567   -0.213379
C       0.799994   -0.692242    1.178183
C       1.497062   -0.002951    2.354057
C       0.540272    0.363988    3.474673
O       0.545949    1.425140    4.043648
C       0.252581   -1.990673    1.502725
C      -0.167576   -3.077597    1.799372
H       0.767435    2.048719    0.647850
H      -0.458690    1.919893   -0.628216
H      -0.929725    1.717330    1.067048
H       1.310750   -1.243694   -0.945049
H       2.146430    0.259246   -0.298343
H       2.228545   -0.710676    2.767702
H       2.040291    0.893665    2.051417
H      -0.180085   -0.437275    3.748648
H      -0.553918   -4.035062    2.048321
