14

O       0.095360    1.373620    0.110271
C       0.068394    0.016364    0.066183
C       0.109540   -0.646736   -1.164823
O       0.177035    0.113390   -2.300310
C       0.080712   -2.034097   -1.184939
F       0.122886   -2.618237   -2.401244
C       0.012394   -2.790044   -0.027229
C      -0.028013   -2.116152    1.192391
C      -0.000401   -0.724468    1.243364
H       0.144062    1.698338   -0.797836
H       0.198304   -0.480455   -3.059615
H      -0.007778   -3.870425   -0.094257
H      -0.081642   -2.683840    2.114076
H      -0.031421   -0.193219    2.187097
