17

O       0.121518    0.074886    0.154149
C       1.037618    0.639846   -0.384323
C       1.546487    2.017150    0.003934
C       1.553552    2.967771   -1.185109
C       0.177824    3.347155   -1.720353
C       0.208421    4.176394   -2.990784
O      -0.426770    5.187170   -3.147417
C       2.708562    3.852053   -1.400099
O       2.544377    2.659932   -2.178196
H       1.589987    0.174208   -1.229938
H       0.930005    2.406159    0.819392
H       2.576737    1.899851    0.362319
H      -0.375643    2.424419   -1.951456
H      -0.394504    3.887016   -0.959952
H       0.859295    3.767872   -3.791463
H       2.581158    4.785649   -1.946545
H       3.538004    3.838941   -0.695263
