21

C      -0.144115    1.546718    0.803936
C      -0.121700    0.059817    0.498623
C       1.099879   -0.537478   -0.254910
O       1.933624   -0.295989    0.948650
C       0.659822   -0.903127    1.446146
C       0.596375   -1.117755    2.930374
O       1.676732   -1.919628    3.370228
C       0.788772   -1.953619    0.300266
C      -0.359667   -2.826599   -0.177384
H       0.839799    1.887125    1.131882
H      -0.432267    2.118251   -0.085101
H      -0.874003    1.776367    1.587869
H      -1.098769   -0.301776    0.169491
H       1.527613   -0.246574   -1.215838
H       0.580012   -0.140499    3.439354
H      -0.327873   -1.644932    3.192421
H       2.468310   -1.557106    2.954101
H       1.708270   -2.532526    0.414652
H      -1.300481   -2.285512   -0.305507
H      -0.110246   -3.288426   -1.138792
H      -0.537074   -3.638230    0.536285
