16

O       0.028932    0.187121    0.591063
C       0.037929    1.330102    0.225605
C      -1.153492    2.290759    0.210363
O      -0.694033    3.487460   -0.389985
C       0.727699    3.574506   -0.267524
C       1.134583    4.297290    1.038077
C       0.573271    5.642026    1.131545
N       0.140909    6.710845    1.200568
C       1.233280    2.127548   -0.305530
H      -1.984732    1.886040   -0.375186
H      -1.510263    2.446249    1.240331
H       1.071390    4.167394   -1.118124
H       0.811887    3.716058    1.910219
H       2.227289    4.366101    1.089282
H       2.132549    1.928921    0.280994
H       1.426220    1.807717   -1.335281
