17

O       0.197176    1.400344   -0.146270
C       0.007532    0.022554   -0.025759
C       0.245302   -0.604287    1.378699
O      -0.214342    0.334039    2.355097
C      -1.620915    0.219534    2.372685
C      -2.366681    0.021780    1.070618
C      -2.100122   -1.148817    2.045571
C      -0.954921   -1.600063    1.118003
C      -1.415966   -0.591790    0.014964
H       0.038271    1.761755    0.736505
H       0.607959   -0.479352   -0.792557
H       1.238467   -0.951300    1.666843
H      -2.075525    0.816046    3.153611
H      -3.291385    0.546611    0.860832
H      -2.759715   -1.759853    2.646911
H      -0.744354   -2.648807    0.931669
H      -1.905412   -0.917717   -0.902945
