13

O       0.098586    1.365964    0.114490
C       0.070543    0.017738    0.061020
C       0.115455   -0.651733   -1.162597
O       0.188657    0.087308   -2.308492
C       0.081895   -2.040055   -1.127609
F       0.126674   -2.659993   -2.320551
N       0.012244   -2.780279   -0.053471
C      -0.030291   -2.126020    1.117904
C      -0.004213   -0.743844    1.228661
H       0.152065    1.702234   -0.790075
H       0.212596   -0.518794   -3.058244
H      -0.088131   -2.745972    2.006926
H      -0.040207   -0.249067    2.191167
