17

O      -0.865925    1.412380    0.259370
C       0.143726    0.991144   -0.239388
C       1.433102    1.815982   -0.366759
O       2.398465    1.287138   -0.869427
C       1.400136    3.237208    0.143322
C       2.753089    3.924216    0.064924
C       3.288083    4.296873   -1.335982
O       3.355762    5.695680   -0.987613
C       2.792584    5.448953    0.314718
H       0.245933   -0.033806   -0.654139
H       0.639799    3.778785   -0.438294
H       1.002417    3.222979    1.166807
H       3.484962    3.371526    0.657502
H       4.267793    3.887410   -1.603243
H       2.590763    4.114078   -2.164857
H       1.810003    5.926575    0.435880
H       3.451983    5.790269    1.121676
