17

O       0.371696    0.943487   -0.911195
C       0.078432   -0.209250   -0.149892
C       0.599542   -0.198702    1.279190
C      -0.299873   -0.613359    2.171656
C      -1.637113   -0.941458    1.552498
C      -2.732373    0.157348    1.777470
C      -2.232824    0.789267    0.474817
O      -2.277550    1.899017    0.016048
C      -1.432608   -0.464837    0.076409
H      -0.260329    1.634035   -0.670224
H       0.533864   -1.039765   -0.705568
H       1.617599    0.104160    1.497468
H      -0.128371   -0.696874    3.240078
H      -1.964169   -1.969241    1.722230
H      -3.749955   -0.233314    1.667329
H      -2.681483    0.779030    2.674893
H      -1.916374   -1.048035   -0.709376
