18

O       0.260947   -0.183619   -0.308775
C       0.116714    1.001998   -0.168267
C       1.250271    2.009969   -0.029797
C       1.225817    2.992559   -1.166707
C       0.897936    4.288670   -1.105077
C       1.055872    4.945732   -2.433644
N       2.468208    4.907931   -2.918241
C       1.507427    3.879455   -3.369456
C       1.594090    2.575542   -2.585076
H      -0.897312    1.464091   -0.146828
H       1.111387    2.539523    0.921209
H       2.193382    1.455138    0.009215
H       0.607566    4.818876   -0.205344
H       0.422954    5.773047   -2.735782
H       2.570039    5.593626   -3.665403
H       1.210820    3.864786   -4.412431
H       2.599596    2.139878   -2.628079
H       0.902790    1.817895   -2.977488
