17

C       0.071956    1.463753   -0.382431
N       0.040450    0.027547   -0.113763
C      -1.041444   -0.460745    0.781924
C      -0.166264   -1.658705    1.259665
N      -0.330492   -1.427815    2.725901
C      -0.334909   -0.035165    2.154839
C      -0.497908    1.128374    2.967681
C      -0.653444    2.099312    3.662282
C       0.777268   -0.439684    1.090231
H       1.042971    1.722926   -0.816685
H      -0.697977    1.703709   -1.122851
H      -0.090785    2.092890    0.505443
H      -2.103857   -0.427639    0.529598
H      -0.066581   -2.640351    0.801521
H      -1.276831   -1.680098    3.023823
H      -0.783157    2.959587    4.271445
H       1.859516   -0.389101    1.209817
