17

O       0.003064    0.036017   -0.477348
C      -0.013911    1.168997   -0.066295
C      -1.291221    1.911625    0.334678
C      -1.007763    3.355016    0.712903
C       0.112635    4.122085    0.010224
C       1.062842    3.275879   -0.820047
C       1.227119    2.041443    0.098822
O       1.203500    2.558545    1.439088
C       0.290254    3.634726    1.422852
H      -2.000430    1.837536   -0.497914
H      -1.745805    1.370037    1.172983
H      -1.867359    3.945895    1.012855
H      -0.021254    5.170747   -0.223786
H       0.679051    2.996277   -1.806276
H       2.019050    3.790565   -0.957030
H       2.140210    1.463287   -0.041905
H       0.370163    4.261353    2.301656
