18

C      -0.026379    1.529330    0.217883
C       1.523955    1.436295   -0.102042
C       2.192931    0.255932    0.720954
C       0.974628   -0.510599    1.173861
C       1.197240   -1.690742    0.224193
C      -0.284889   -1.500200   -0.294556
C       0.050391   -0.012358    0.008044
C       1.204665    0.242792   -1.007064
N       2.203502   -0.725358   -0.501135
H      -0.370371    1.891498    1.190750
H      -0.524408    2.084297   -0.582708
H       2.113545    2.304939   -0.389858
H       3.111266    0.367372    1.294481
H       0.536914   -0.557162    2.170757
H       1.607836   -2.667188    0.475201
H      -0.557525   -1.764303   -1.320245
H      -0.961290   -1.988233    0.414102
H       0.951212    0.289735   -2.067596
