17

C      -0.058112    1.598692    0.052210
C      -0.000677    0.091769   -0.012247
C      -1.176686   -0.614891    0.595280
O      -2.183919   -0.060183    0.952216
C       0.687855   -0.659750   -1.113669
C       1.712959    0.072089   -1.981443
N       2.775105    0.494389   -1.049728
C       2.447510    0.067475    0.101875
N       1.259524   -0.714495    0.244910
H       0.834501    2.072241   -0.356784
H      -0.929729    1.945301   -0.509924
H      -0.190124    1.929464    1.086161
H      -1.038734   -1.713940    0.688762
H       0.242893   -1.578633   -1.484219
H       2.133492   -0.600077   -2.737271
H       1.317636    0.945358   -2.512197
H       3.045522    0.240081    0.991333
