15

O       0.021064   -0.010356   -0.009988
C      -0.017351    1.179723   -0.033439
C      -1.065099    2.314951    0.060654
C      -0.041772    2.970001    1.027280
C       1.003544    2.348331    0.038755
C       0.610612    3.078866   -1.269305
O      -0.849176    3.013620   -1.177932
C       1.071252    4.456238   -1.371329
C       1.474436    5.585034   -1.456784
H      -2.127503    2.193795    0.251916
H      -0.070472    4.059217    1.077356
H      -0.017698    2.515677    2.019119
H       2.060229    2.222806    0.256327
H       0.933521    2.516146   -2.153586
H       1.824328    6.584758   -1.538917
