16

C      -0.279155    1.540244    0.189659
C      -0.067927    0.043614   -0.013094
C       0.528562   -0.530991   -1.322437
C       1.107235    0.395462   -2.373960
O       1.870115   -0.329507   -3.316845
O       1.627086   -1.143814   -0.548013
C       1.171155   -0.591472    0.626320
O       1.672194   -0.657104    1.701373
H       0.604569    2.123510   -0.081016
H      -1.124243    1.900897   -0.404037
H      -0.497168    1.738541    1.242659
H      -0.964718   -0.506160    0.289042
H      -0.057435   -1.322182   -1.796933
H       0.295585    0.880236   -2.927247
H       1.704380    1.183588   -1.891573
H       2.562149   -0.786910   -2.824806
