14

O       0.016208    0.126239    0.282794
C       0.013760    1.321761    0.185709
C      -1.103259    2.317324    0.471040
N      -0.735216    3.544680   -0.265147
C       0.743516    3.645629   -0.202843
C       1.194042    4.220445    1.060331
C       1.582059    4.633297    2.120097
C       1.217935    2.176514   -0.319009
O       2.252377    1.753695   -0.746584
H      -2.076254    1.934126    0.158725
H      -1.152905    2.533056    1.545822
H      -1.002844    3.442312   -1.239919
H       1.122769    4.228267   -1.046995
H       1.925120    5.020842    3.047964
