14

O      -0.022750   -0.020728   -0.000364
C       0.004824    1.188140    0.008527
C       1.256351    1.969299    0.001439
C       1.319248    3.311461    0.011749
C       2.736363    3.763845    0.000465
O       3.127902    4.905752    0.005125
C       3.605622    2.495900   -0.020536
C       2.618149    1.312628   -0.018818
H      -0.927670    1.791400    0.024485
H       0.483070    4.000251    0.026458
H       4.248523    2.516908   -0.905341
H       4.269557    2.502163    0.848801
H       2.736717    0.654206    0.847961
H       2.717339    0.667762   -0.898120
