19

O       0.227685    1.315885   -0.524703
C       0.102932    0.093797    0.173017
C      -1.314249   -0.466181    0.106745
C      -2.310608    0.282484    0.967666
O      -2.344789    1.646853    0.537380
C      -1.798984   -1.051277   -1.176689
C      -1.577018   -1.974842    0.014726
C      -0.483835   -2.974784   -0.023711
O      -0.528909   -4.040770    0.540175
H      -0.517885    1.864065   -0.245181
H       0.818807   -0.592745   -0.286258
H       0.393629    0.198654    1.232675
H      -3.307622   -0.173146    0.880212
H      -2.002808    0.220903    2.022093
H      -2.787198    2.171566    1.211261
H      -2.824328   -0.881886   -1.485746
H      -1.087554   -1.116076   -1.993772
H      -2.454720   -2.338623    0.540335
H       0.398507   -2.693337   -0.641006
