20

C      -0.359698    1.261067   -0.022809
O      -0.104883   -0.121185    0.016395
C       0.744735   -0.542014    1.079757
C      -0.010544   -0.593375    2.415870
C       1.306787   -1.882189    0.696164
C       1.049076   -2.558340   -0.474414
N       1.751881   -3.736752   -0.445471
C       2.459263   -3.828375    0.725255
C       2.203987   -2.692216    1.456022
H       0.572465    1.846624   -0.070290
H      -0.941251    1.455198   -0.928054
H      -0.940859    1.613580    0.842160
H       1.570998    0.185062    1.176424
H      -0.854892   -1.283914    2.337188
H       0.649998   -0.944891    3.213846
H      -0.385163    0.393591    2.703880
H       0.426977   -2.287423   -1.309611
H       1.743146   -4.429972   -1.172204
H       3.079614   -4.684236    0.937439
H       2.618859   -2.462765    2.426100
