21

C      -0.160494    1.329498   -0.020470
O       0.167310   -0.044354    0.034143
C       0.748347   -0.554610   -1.122725
C       2.140174   -0.048641   -1.532395
C       2.386818   -0.954425   -2.766516
C       1.082683   -1.756840   -2.766303
C       0.689402   -2.101602   -1.295454
C      -0.804717   -1.989870   -1.686618
C      -0.112287   -0.815122   -2.419831
H       0.731751    1.966446   -0.096632
H      -0.823662    1.556386   -0.867557
H      -0.681879    1.569372    0.909151
H       2.142121    1.015954   -1.784480
H       2.868454   -0.200761   -0.729785
H       2.519451   -0.383526   -3.690926
H       3.264869   -1.597048   -2.648524
H       0.931406   -2.518387   -3.532230
H       1.165299   -2.837821   -0.644378
H      -1.204172   -2.788783   -2.317445
H      -1.496295   -1.727442   -0.884663
H      -0.561655   -0.069918   -3.079901
