25

C      -0.145036    1.543945    0.064575
C       0.015285    0.023859   -0.033774
C       0.854698   -0.465227   -1.232122
C       2.309543    0.017910   -1.150180
C       0.750526   -1.995780   -1.347912
C       1.359744   -2.651866   -2.594761
C       1.661501   -4.069499   -2.089328
C       2.081440   -3.802157   -0.636951
O       1.406665   -2.612318   -0.230823
H       0.807937    2.049427    0.247938
H      -0.568641    1.959067   -0.857630
H      -0.817454    1.810905    0.886152
H       0.461057   -0.367190    0.888519
H      -0.981497   -0.430903   -0.104064
H       0.398559   -0.058338   -2.147718
H       2.360047    1.107856   -1.084894
H       2.798775   -0.402490   -0.266891
H       2.891195   -0.274757   -2.029495
H      -0.320649   -2.259693   -1.306598
H       0.677136   -2.630554   -3.447994
H       2.285367   -2.147475   -2.889357
H       0.755767   -4.684702   -2.118334
H       2.435215   -4.584618   -2.663944
H       1.809878   -4.619090    0.041885
H       3.167789   -3.647855   -0.559119
