19

C       0.203557    1.460620    0.236613
C       0.058287    0.016579    0.136574
C      -0.067160   -1.179237    0.061597
C      -0.174747   -2.607877   -0.051960
O      -0.822649   -3.323779    1.022554
C      -1.464093   -3.307510   -0.266025
C      -2.769124   -2.553559   -0.339807
C      -1.443032   -4.675281   -0.925333
O      -2.305460   -5.573911   -0.249115
H       1.254434    1.760088    0.160526
H      -0.348707    1.973091   -0.558726
H      -0.178158    1.827145    1.195760
H       0.725822   -3.104029   -0.415968
H      -2.725307   -1.643753    0.260125
H      -2.993416   -2.280957   -1.376648
H      -3.579438   -3.190763    0.025191
H      -1.808964   -4.611685   -1.955548
H      -0.410752   -5.054584   -0.952539
H      -2.001131   -5.605458    0.665659
