21

C      -1.414762    1.419392   -1.277375
C      -1.639384   -0.075138   -1.242326
O      -2.185660   -0.714979   -2.107186
O      -1.149685   -0.598109   -0.100475
C      -1.282038   -2.023156    0.114049
C      -0.312493   -2.781410   -0.782296
C      -1.152095   -2.361411    1.618464
C      -2.373425   -3.311505    1.472632
C      -2.726302   -2.591748    0.141926
H      -1.805948    1.823158   -2.210416
H      -1.913569    1.893595   -0.427251
H      -0.347327    1.641188   -1.191191
H       0.709954   -2.424921   -0.620445
H      -0.339778   -3.850115   -0.547947
H      -0.576938   -2.650726   -1.833210
H      -0.201129   -2.783458    1.952877
H      -1.387794   -1.484479    2.225915
H      -2.076112   -4.351961    1.319537
H      -3.120587   -3.280865    2.267511
H      -3.456101   -1.793807    0.295277
H      -3.036714   -3.192239   -0.713987
