21

C       0.079946    1.497644    0.163808
C      -0.058815   -0.027622    0.026790
C      -1.524002   -0.405639   -0.067529
O      -2.095364   -1.173263    0.662801
C       0.672335   -0.553031   -1.215193
C       2.226183   -0.469204   -1.255338
C       2.223005   -1.847952   -1.970506
O       3.243739   -2.776990   -1.721688
C       0.790075   -2.089697   -1.429007
H       1.135066    1.784930    0.187290
H      -0.387162    2.013690   -0.682884
H      -0.391400    1.860243    1.082097
H       0.342142   -0.523813    0.918113
H      -2.063666    0.093251   -0.909758
H       0.251469   -0.080273   -2.111030
H       2.698934    0.377137   -1.758322
H       2.647339   -0.562041   -0.246617
H       2.208137   -1.715775   -3.056644
H       3.269333   -2.946461   -0.773916
H       0.821436   -2.614413   -0.466404
H       0.065908   -2.590792   -2.074978
