21

C       0.338271    1.423738    0.000264
C       0.029333   -0.036018    0.143562
C      -1.348223   -0.695748   -0.043002
C      -0.966214   -1.747304    1.049954
C       0.404332   -1.064710    1.189799
N       1.087559   -1.021589   -0.102070
C       1.223976   -0.976746    2.427620
C       2.375519   -1.898819    2.620100
N       2.601312   -0.469732    2.353726
H       1.333156    1.650747    0.390962
H       0.310323    1.728274   -1.053003
H      -0.392743    2.032070    0.543294
H      -2.178621   -0.055867    0.266271
H      -1.558598   -1.074365   -1.049543
H      -1.585167   -1.656601    1.946335
H      -0.941181   -2.801287    0.751482
H       0.806313   -1.772346   -0.731117
H       0.676841   -0.647460    3.309323
H       2.643873   -2.232517    3.618546
H       2.585793   -2.608779    1.824376
H       2.829809   -0.368774    1.364833
