14

O       0.381217    1.342842   -0.189711
C       0.146157    0.021458   -0.106594
C      -0.255013   -0.828596   -1.083946
O      -0.352923   -2.076764   -0.503824
C      -0.007900   -1.894113    0.781118
C       0.004158   -3.081857    1.693943
C      -1.295336   -3.738625    1.814424
C      -2.361584   -4.281157    1.914349
N       0.300981   -0.667447    1.080331
H       0.641157    1.634465    0.692460
H      -0.495509   -0.746111   -2.126976
H       0.748503   -3.806102    1.336459
H       0.347514   -2.727672    2.670490
H      -3.306100   -4.758572    2.001371
