18

O       0.644672    0.581404   -0.915321
C      -0.042192   -0.266450   -0.035306
C       0.227614   -0.180250    1.493340
C      -1.280951   -0.433673    1.722332
C      -1.550325   -0.025396    0.254848
C      -1.720949   -1.851318    2.176269
N      -2.544414   -1.642674    3.378159
C      -2.561439   -0.389960    3.560275
O      -1.894876    0.428298    2.711147
H       0.515079    1.489375   -0.620870
H       0.131446   -1.278783   -0.411071
H       0.941280   -0.874634    1.943281
H       0.485760    0.842954    1.785670
H      -1.791444    1.041329    0.199617
H      -2.293823   -0.592742   -0.310179
H      -2.308959   -2.368403    1.409865
H      -0.866509   -2.492467    2.420149
H      -3.078549    0.122843    4.363871
