17

C      -0.130982    1.823847    0.465872
C      -0.144150    0.356123    0.109993
O       0.800529   -0.067017   -0.869090
C       0.976036   -0.548372    0.480104
C       2.132287   -0.096809    1.203805
C       3.098365    0.254149    1.827634
C      -1.516261   -0.251939   -0.038649
C      -1.996274   -0.727189   -1.344385
O      -1.579852   -1.642918   -0.326978
H       0.893530    2.180322    0.580062
H      -0.621359    2.407951   -0.320022
H      -0.668473    1.998922    1.403726
H       0.729903   -1.602266    0.592176
H       3.955708    0.561788    2.373972
H      -2.246535    0.094226    0.694047
H      -3.062898   -0.724398   -1.561619
H      -1.327369   -0.659706   -2.198474
