16

O       0.004632    1.428016   -0.035864
C      -0.011796    0.012594   -0.068519
C      -1.420917   -0.463509    0.034243
C      -2.547165    0.262884    0.090477
C      -3.758806   -0.617871    0.096524
N      -3.868232   -1.400483   -1.166557
C      -3.267122   -2.009976    0.058919
C      -1.750144   -1.920616    0.051558
O      -0.963552   -2.838697    0.082702
H       0.917497    1.718092   -0.116009
H       0.429809   -0.383371   -0.998157
H       0.573246   -0.425290    0.756624
H      -2.589108    1.344014    0.071071
H      -4.662441   -0.329966    0.621016
H      -4.819447   -1.762742   -1.248558
H      -3.757717   -2.847846    0.538575
