20

C      -0.148072    1.565292   -0.018196
C      -0.029857    0.045639   -0.016963
C       1.097379   -0.596553   -0.887485
C       2.091725   -0.261774    0.275917
C       0.810725   -0.594782    1.134939
O       0.662345   -0.268811    2.479894
C       0.708342   -2.105186    0.842159
N      -0.398519   -2.510395   -0.057199
C       0.914364   -2.110134   -0.621257
H       0.806526    2.093140    0.066151
H      -0.626505    1.907778   -0.941810
H      -0.785131    1.894172    0.811827
H      -1.017053   -0.394312   -0.152549
H       1.279270   -0.271061   -1.911006
H       2.961971   -0.913105    0.399409
H       2.401333    0.783840    0.317410
H       0.755336    0.685053    2.571338
H       1.147233   -2.814404    1.534223
H      -0.446492   -3.527605   -0.059193
H       1.525365   -2.840423   -1.139497
