22

C      -0.146749    1.300499   -0.063369
N       0.104230   -0.132910    0.048924
C       1.522385   -0.488272   -0.137985
C       0.909470   -0.488434    1.227862
C       1.019462   -2.034359    1.316103
C       1.778997   -2.553851    2.515796
C      -0.200021   -2.846351    0.774634
C       0.429727   -2.850286   -0.654046
C       1.640982   -2.027838   -0.124991
H       0.679618    1.930201    0.308907
H      -0.320529    1.553110   -1.114228
H      -1.048589    1.552665    0.503647
H       2.193171    0.226118   -0.602501
H       1.009485    0.220445    2.044003
H       1.182360   -2.461618    3.432192
H       2.038028   -3.611003    2.392529
H       2.710440   -1.996028    2.669155
H      -0.279110   -3.840330    1.224376
H      -1.163173   -2.340186    0.853286
H       0.710932   -3.845560   -1.006993
H      -0.163622   -2.352114   -1.421697
H       2.648381   -2.410258   -0.297970
