16

C       0.314785    1.491148    0.268900
C       1.238116    0.357476   -0.120768
C      -0.250971    0.117746    0.084185
N      -0.725168   -0.587731    1.241512
C      -0.681325   -1.858175    1.170562
N      -0.237843   -2.744447    0.198303
N      -0.355308   -4.046428    0.600227
N      -0.887485   -4.052708    1.748031
N      -1.112654   -2.766126    2.121824
H       0.375326    1.848608    1.290593
H       0.089724    2.252653   -0.469358
H       1.642092    0.340113   -1.128027
H       1.907540   -0.021229    0.643701
H      -0.834933   -0.039023   -0.825371
H       0.275450   -2.519490   -0.635394
H      -1.507674   -2.554764    3.021393
