18

C       0.425022    1.413894   -0.784771
C      -0.061975    0.155911   -0.110446
N       0.896722   -0.928912    0.067779
C       0.363023   -0.270760    1.270357
C       1.334548    0.530517    2.088599
O       2.349979    1.032804    1.655853
N       0.944696    0.674519    3.412630
C       1.660930    1.400047    4.350473
N       1.237880    1.488977    5.545192
H       1.441545    1.647543   -0.467967
H       0.415074    1.279258   -1.871549
H      -0.229378    2.258351   -0.543602
H      -1.086848   -0.126036   -0.353994
H       0.456913   -1.837862   -0.047370
H      -0.387409   -0.807077    1.849099
H       0.094656    0.242860    3.746254
H       2.565273    1.838835    3.925330
H       1.876153    2.052526    6.103742
