17

O       0.106028    1.252821   -0.542022
C      -0.022831    0.029340    0.171551
C      -1.428851   -0.513138    0.197422
C      -2.495842    0.048846    1.064253
C      -3.517291   -0.814553    1.165069
C      -3.228707   -1.964197    0.237040
O      -3.339742   -1.385791   -1.138818
C      -1.949365   -1.189146   -1.136038
C      -1.681217   -2.004641    0.074874
H      -0.486368    1.895734   -0.139762
H       0.637131   -0.676956   -0.344459
H       0.356465    0.130559    1.201031
H      -2.470384    1.052921    1.473904
H      -4.471527   -0.644654    1.645459
H      -3.811070   -2.880347    0.313046
H      -1.448608   -1.029283   -2.082981
H      -0.982377   -2.797596    0.311767
