12

O      -0.070083    1.498732    0.113478
C       1.367010    1.502632   -0.038000
C       1.962920    0.623828    1.092592
C       0.948709   -0.464226    1.096367
C       0.026349    0.064353   -0.033012
C       1.354071    0.167965   -0.829858
N       2.169580   -0.588525    0.229280
H       1.797024    2.461745   -0.316283
H       2.621595    0.872440    1.914243
H       0.749774   -1.135664    1.921210
H      -0.901180   -0.432923   -0.306244
H       1.516116    0.013227   -1.893642
