18

C      -0.096798    1.564755   -0.105454
C       0.035172    0.065268    0.009295
C       1.331293   -0.685369   -0.200032
N       2.574225    0.024850   -0.025417
C       2.689147    0.499942    1.243341
C       1.648445    0.105433    2.032985
C       1.555802    0.307924    3.454564
O       0.653252   -0.098530    4.165125
C       0.675737   -0.651530    1.189854
H       0.750370    2.086868    0.344707
H      -0.166835    1.873722   -1.154382
H      -1.001439    1.908205    0.406872
H      -0.814421   -0.484367   -0.388232
H       1.374956   -1.558795   -0.841839
H       3.153035    0.322561   -0.791160
H       3.542152    1.106671    1.521364
H       2.407189    0.884773    3.887763
H       0.165105   -1.503510    1.621922
