14

C      -0.106281    1.479477    0.002381
C      -0.030732    0.029371   -0.032738
C       0.020427   -1.177016   -0.068620
C       0.113949   -2.571133   -0.104882
C       1.182179   -3.432492   -0.040279
N       2.537242   -3.188501    0.018681
N       0.678195   -4.704404   -0.115546
N      -0.587037   -4.668619   -0.220940
O      -1.000388   -3.342158   -0.220599
H       0.594768    1.930958   -0.708282
H      -1.113554    1.819532   -0.260860
H       0.127614    1.869372    0.999427
H       2.784520   -2.307041    0.444950
H       3.065169   -3.962593    0.396632
