19

C      -0.591243    1.332957    0.195208
O       0.796649    1.004134    0.048341
C      -0.143667   -0.055479    0.057804
C      -0.118265   -1.191078    1.085205
C      -0.410742   -2.196032   -0.072791
O      -1.728498   -2.709592   -0.130709
C      -2.566675   -1.751584   -0.771277
C      -1.678947   -1.058509   -1.817445
C      -0.316433   -1.032280   -1.118591
H      -0.881252    1.711370    1.175101
H      -1.038113    1.851927   -0.652332
H       0.869157   -1.322403    1.536230
H      -0.873903   -1.164752    1.874316
H       0.280008   -3.036700   -0.154671
H      -3.419817   -2.286684   -1.196152
H      -2.950976   -1.019407   -0.043389
H      -1.620647   -1.665167   -2.726503
H      -2.048743   -0.066958   -2.092146
H       0.536457   -1.043052   -1.798911
