14

N       0.020844    1.379491    0.156560
C      -0.053943    0.014225    0.053422
C      -1.230518   -0.696893    0.036939
C      -1.097125   -2.102207   -0.006831
O      -2.238169   -2.808933   -0.022668
N       0.025226   -2.780067   -0.040203
C       1.213493   -2.103355   -0.024755
O       2.321974   -2.592848   -0.041576
N       1.113431   -0.675180    0.016071
H       0.841082    1.829830   -0.220013
H      -0.834354    1.880391   -0.027184
H      -2.198111   -0.218730    0.053441
H      -1.965782   -3.738476   -0.057387
H       2.003373   -0.201699    0.074912
