19

O      -0.037788    1.441927    0.166296
C      -0.005095    0.042469    0.073794
C       0.109027   -0.657087    1.456637
C      -1.414587   -0.389789    1.626266
C      -1.408553   -0.641379    0.070568
C      -1.037496   -2.137362   -0.001309
C       0.132681   -2.140141    1.044935
C      -2.503982   -0.107290   -0.778553
O      -2.394342    0.883452   -1.469882
H      -0.602277    1.745961   -0.557688
H       0.695543   -0.296694   -0.704120
H       0.832055   -0.317096    2.197357
H      -1.997666   -1.076570    2.245310
H      -1.631443    0.648290    1.869660
H      -1.867834   -2.789367    0.284451
H      -0.706219   -2.430746   -1.001484
H       1.085306   -2.433601    0.595442
H      -0.062940   -2.807391    1.887977
H      -3.471209   -0.657940   -0.737578
