13

N      -0.106067    1.383104    0.302419
C      -0.030779    0.008933    0.056541
C      -1.030338   -0.875336   -0.211400
O      -2.344688   -0.656173   -0.449286
C      -3.266058   -1.388837    0.274467
O      -4.429477   -1.274924    0.075253
O      -0.566499   -2.137006   -0.296837
N       0.807988   -2.109481   -0.078932
C       1.104827   -0.847671    0.128383
H       0.641835    1.904036   -0.137929
H      -0.996482    1.773355    0.019487
H      -2.784190   -2.049944    1.011222
H       2.132596   -0.577322    0.328369
