10

O      -0.059097   -0.038879    0.003317
C      -0.042210    1.155365    0.009294
N      -1.085980    2.066926    0.028744
C      -0.553443    3.333536    0.028467
N       0.746767    3.308697    0.011112
O       1.087639    1.944638   -0.001002
C      -1.329746    4.513247    0.045612
C      -2.021660    5.495547    0.060512
H      -2.058721    1.813358    0.040552
H      -2.620888    6.373624    0.073572
