16

O       0.326735   -0.075321   -0.011636
C       0.160765    1.102204   -0.077919
O       1.144456    1.991823    0.189795
C       0.855941    3.373221    0.090022
C       1.300186    4.200687    1.329639
N       2.145869    4.985636    0.428549
C       1.875784    4.179756   -0.760500
C       2.898846    6.099020    0.571800
O       3.521897    6.620582   -0.329039
H      -0.792190    1.591494   -0.358666
H      -0.188079    3.526355   -0.197168
H       0.511770    4.765578    1.837517
H       1.852837    3.599132    2.059652
H       2.729103    3.580484   -1.093928
H       1.471323    4.743268   -1.606097
H       2.876105    6.484943    1.611540
