20

C      -0.606950    1.257164    0.043891
C       0.111334   -0.085595   -0.068957
C       1.247491   -0.107261   -1.131870
C       2.282192   -1.029982   -0.532802
C       2.027711   -1.288114    0.749726
C       0.787693   -0.613396    1.217152
C       0.787555    0.131544    2.540780
C      -0.009165   -1.136747    2.386964
H       0.087093    2.055997    0.326291
H      -1.061579    1.532663   -0.913586
H      -1.409736    1.229274    0.789231
H      -0.625501   -0.843130   -0.367009
H       0.885960   -0.440492   -2.111624
H       1.669048    0.897454   -1.287797
H       3.142078   -1.389883   -1.086413
H       2.642016   -1.891200    1.410575
H       1.694349    0.103097    3.136109
H       0.246950    1.069546    2.603304
H      -1.090683   -1.050385    2.333533
H       0.338202   -2.034694    2.888093
