18

O      -0.111833    1.419368   -0.237120
C      -0.060051   -0.000149   -0.353635
C      -1.448864   -0.492959    0.040059
O      -1.773434   -0.030275    1.321713
C      -2.519559   -0.306561   -1.080734
C      -2.327026   -1.791216   -1.484203
C      -1.639410   -2.037622   -0.103878
C      -0.474350   -2.902689   -0.039788
N       0.471888   -3.567700   -0.013974
H       0.786196    1.761848   -0.244865
H       0.194092   -0.311657   -1.376545
H       0.682070   -0.430422    0.331921
H      -1.425397    0.870667    1.374080
H      -3.497466   -0.125678   -0.629652
H      -2.319883    0.457379   -1.833610
H      -3.219855   -2.384333   -1.683149
H      -1.626817   -1.920411   -2.311584
H      -2.370937   -2.351184    0.645502
