18

O       0.033756   -0.089403    0.054749
C      -0.010942    1.114670    0.041853
N      -1.177496    1.838694    0.082787
C      -1.244495    3.293065   -0.037567
C      -0.945574    3.755640   -1.482781
C       0.608972    3.651028   -1.580343
C       1.067236    3.280990   -0.152283
C      -0.041274    3.839474    0.740285
O       1.140268    1.846850    0.011848
H      -2.008265    1.282073   -0.034681
H      -2.214105    3.628163    0.335976
H      -1.462162    3.134313   -2.217628
H      -1.281795    4.787709   -1.626529
H       0.945546    2.892849   -2.290313
H       1.053387    4.603189   -1.883562
H       2.071697    3.631497    0.086139
H      -0.030340    4.933276    0.730130
H       0.013293    3.483684    1.770827
