20

C      -0.088824    1.526522    0.003428
C       0.094850    0.005159   -0.054434
C       0.839250   -0.459950   -1.275618
C       2.277499   -0.119934   -1.746283
C       1.734258   -1.066990   -2.835037
O       2.308156   -1.473629   -4.022862
C       0.919872   -1.931902   -1.798534
N      -0.393701   -1.813253   -2.513271
C       0.288152   -0.497645   -2.745284
H       0.875562    2.045306    0.014737
H      -0.651713    1.888627   -0.863262
H      -0.636460    1.820905    0.903789
H       0.629404   -0.335034    0.842345
H      -0.882057   -0.492114   -0.045172
H       2.466576    0.915102   -2.047048
H       3.094019   -0.496400   -1.120031
H       3.128416   -1.938998   -3.825450
H       1.228894   -2.820708   -1.244007
H      -0.371789   -2.368112   -3.373107
H      -0.151085    0.319575   -3.319821
