19

C      -0.780938    1.211607   -0.140865
C      -0.030155   -0.109562   -0.072312
C       1.275743   -0.291341   -0.899534
O       1.917575    0.961817   -1.094346
C       1.922122   -1.047335    0.315956
O       3.250878   -0.727651    0.619264
C       0.789123   -0.469426    1.176454
C       0.922062    0.245716    2.445650
O       0.282707   -1.038472    2.366039
H      -0.105293    2.056142    0.012090
H      -1.264018    1.340552   -1.114670
H      -1.562477    1.245872    0.625267
H      -0.704136   -0.943615   -0.300650
H       1.185230   -0.839385   -1.842867
H       2.673204    0.814668   -1.672177
H       1.852213   -2.135461    0.228024
H       3.313456    0.231502    0.516125
H       1.885762    0.253003    2.952504
H       0.262416    1.082131    2.670816
