20

C      -0.334031    1.488514   -0.079485
C      -0.000058    0.005000   -0.043035
C       1.140882   -0.540288   -0.982369
C       1.876178   -1.057477    0.258303
N       2.111541    0.092329    1.114392
C       3.042635    0.119686    2.130355
O       4.152119   -0.359033    2.075796
C       0.789345   -0.536329    1.173450
C       0.218863   -1.077258    2.448359
H       0.564361    2.086952    0.097155
H      -0.747416    1.773108   -1.052753
H      -1.075521    1.749375    0.684011
H      -0.905273   -0.596386   -0.177053
H       0.796087   -1.337194   -1.644232
H       1.688055    0.205507   -1.564299
H       2.509437   -1.929773    0.365157
H       2.685826    0.715281    2.993043
H      -0.190462   -0.276486    3.075307
H      -0.594925   -1.776865    2.232866
H       0.979560   -1.605632    3.031633
