16

C       0.395889    1.408375   -0.029047
C      -0.066448   -0.014552   -0.063967
C      -1.054717   -0.537600   -0.832541
O      -1.195810   -1.884326   -0.591904
C      -0.272070   -2.196916    0.347335
N      -0.273333   -3.535698    0.714696
C       0.561415   -4.100913    1.641225
O       1.412343   -3.507179    2.263601
C       0.453625   -1.109295    0.717810
H       1.455382    1.489985   -0.296319
H      -0.174575    2.027455   -0.726840
H       0.283494    1.839647    0.971950
H      -1.726938   -0.126487   -1.566334
H      -0.950828   -4.122001    0.250649
H       0.360302   -5.182699    1.753310
H       1.245301   -1.097687    1.445875
