16

C      -0.121081    1.603308    0.073986
C       1.396457    1.305284    0.014715
C       1.264288   -0.025584    0.885956
C       2.040575   -0.867978   -0.148619
C       1.190017    0.106696   -0.988500
N       0.617212   -0.177113   -2.299299
C      -0.502542   -0.715157   -1.992147
O      -0.929666   -0.789341   -0.671314
C       0.001174    0.079754   -0.033823
H      -0.510708    2.016021    1.008020
H      -0.539714    2.120250   -0.793242
H       2.235701    1.996360    0.077995
H       1.293294   -0.059674    1.974870
H       3.125543   -0.739980   -0.176844
H       1.768782   -1.924986   -0.214523
H      -1.200006   -1.156815   -2.695615
