18

O       0.204419    1.396623   -0.190594
C       0.048795    0.010120   -0.040661
C       0.030690   -0.652605    1.359650
C      -1.447726   -0.169543    1.561413
C      -2.210886   -1.223177    2.366666
C      -1.627730   -2.513274    1.725811
C      -0.671647   -1.888864    0.708509
C      -1.354838   -0.636856    0.067166
H      -0.374046    1.844748    0.434706
H       0.725218   -0.441903   -0.771280
H       0.822897   -0.671553    2.111377
H      -1.653448    0.878250    1.794723
H      -2.003873   -1.151157    3.439199
H      -3.294236   -1.136488    2.235479
H      -1.102663   -3.145436    2.448894
H      -2.393104   -3.130774    1.245114
H      -0.083292   -2.550727    0.069731
H      -2.159858   -0.637647   -0.671067
