22

C       0.097312    1.538601    0.037133
C       0.000494    0.012693   -0.003655
C      -1.449912   -0.524630    0.022619
C      -1.497653   -2.059589   -0.127266
C      -2.910295   -2.625550   -0.211811
O      -2.805882   -4.016952   -0.407640
C      -4.057921   -4.659379   -0.457498
C      -2.135607   -0.095988    1.248597
N      -2.664421    0.237497    2.221339
H       1.142412    1.859397    0.005623
H      -0.416710    1.992177   -0.817427
H      -0.350961    1.941146    0.950392
H       0.470034   -0.369332   -0.917162
H       0.550486   -0.423184    0.838172
H      -1.996751   -0.073705   -0.817479
H      -0.955048   -2.331000   -1.038832
H      -0.973831   -2.529540    0.711762
H      -3.471952   -2.402871    0.710109
H      -3.462197   -2.157397   -1.047023
H      -4.675163   -4.288084   -1.291127
H      -3.872134   -5.726001   -0.604188
H      -4.625176   -4.521126    0.476204
