16

O       0.213576   -0.082327    0.543311
C      -0.000414    1.049154    0.192196
C       1.130521    1.894896   -0.265917
N       2.009739    2.563013   -0.609321
C      -1.348817    1.744194    0.162023
C      -1.738208    2.103525   -1.315491
C      -2.836008    1.116483   -1.625974
C      -3.235797    0.440900   -0.552105
C      -2.482198    0.832325    0.694903
H      -1.230823    2.660548    0.750349
H      -2.091839    3.139280   -1.385691
H      -0.888803    2.029722   -2.005253
H      -3.245340    1.013815   -2.624334
H      -4.024825   -0.302101   -0.537804
H      -2.073751   -0.030734    1.229192
H      -3.126416    1.371991    1.400010
