14

O      -0.062890    1.330112    0.009925
C       1.224799    1.811434   -0.000139
C       2.143830    0.820593   -0.014243
C       1.391882   -0.410992   -0.013355
C       0.042541   -0.023843    0.001823
C      -0.986195   -0.950525    0.007012
C      -0.579275   -2.281540   -0.003918
N       0.699965   -2.696784   -0.018552
C       1.665891   -1.782286   -0.023183
H       1.306065    2.886457    0.004672
H       3.215431    0.942019   -0.024050
H      -2.030834   -0.666370    0.018686
H      -1.329262   -3.067986   -0.000713
H       2.689209   -2.150456   -0.035082
