25

C       0.295895    1.327322    0.510017
C      -0.040384   -0.048658   -0.074738
C      -1.508624   -0.157021   -0.472332
O       0.714860   -0.329416   -1.246833
C       2.081509   -0.628772   -1.035594
C       2.663190   -1.186392   -2.314494
C       2.028119   -2.478308   -2.789311
C       3.142323   -0.191958   -3.343624
C       4.143171   -0.979081   -2.531806
H       1.343375    1.393982    0.817852
H       0.105174    2.109347   -0.232330
H      -0.321132    1.529395    1.391483
H       0.183950   -0.819196    0.683707
H      -1.752546    0.594392   -1.230146
H      -1.718214   -1.144787   -0.891111
H      -2.158079    0.001644    0.393740
H       2.643584    0.268465   -0.732252
H       2.181354   -1.367457   -0.220200
H       0.953787   -2.342821   -2.942633
H       2.470713   -2.814709   -3.731871
H       2.164275   -3.279117   -2.051947
H       3.020162   -0.445444   -4.391208
H       3.024600    0.864239   -3.126527
H       4.711410   -0.453670   -1.770802
H       4.695140   -1.771742   -3.025810
