14

N      -0.027776   -1.126085   -0.255286
C      -0.008038    0.024131   -0.153046
C       0.002917    1.492856   -0.073447
N      -0.623001    1.964567    1.164825
C      -0.038017    3.256787    1.541004
C       1.361635    3.187134    0.968179
O       2.042113    1.958176    1.245789
C       1.403247    2.102871   -0.015437
H      -0.469076    1.871275   -0.998285
H      -1.632554    1.968286    1.119271
H      -0.544844    4.131773    1.099569
H      -0.048234    3.372775    2.630485
H       1.981733    4.076176    0.906226
H       2.036001    2.079627   -0.896981
