15

O       0.850730    0.817828    1.435301
C       0.442423    1.401531    0.451693
N       1.147478    1.564635   -0.697907
C       2.515822    1.079044   -0.836486
C       3.541761    2.035823   -0.296676
N       4.377118    2.629653   -1.116375
O       5.179469    3.436256   -0.318016
C       4.792882    3.299507    0.960829
C       3.759499    2.428135    1.056983
H      -0.567175    1.851752    0.389396
H       0.773349    2.166287   -1.414403
H       2.575943    0.131814   -0.294489
H       2.720830    0.894388   -1.892808
H       5.348143    3.880017    1.681278
H       3.218359    2.098137    1.927161
