23

C       0.272011    1.497556   -0.397179
C       0.086097    0.042761   -0.048689
O       1.271739   -0.744028    0.127326
C       0.412591   -0.535673    1.262172
C       1.009910    0.239802    2.446360
C       0.605449   -0.570270    3.696705
C       0.387758   -2.008154    3.182200
C      -0.384230   -2.915393    4.136073
C      -0.294104   -1.766454    1.822781
H       1.052455    1.955585    0.214694
H       0.557122    1.604646   -1.449117
H      -0.661667    2.051064   -0.246413
H      -0.688071   -0.465047   -0.630668
H       2.097206    0.265543    2.323777
H       0.665632    1.277067    2.490794
H       1.347714   -0.512347    4.498047
H      -0.339845   -0.189935    4.105763
H       1.374356   -2.452928    2.989642
H      -1.380622   -2.506864    4.343501
H      -0.517044   -3.918145    3.716187
H       0.136862   -3.023098    5.093534
H      -1.358595   -1.544935    1.985004
H      -0.228784   -2.610212    1.131228
