16

C       0.127042    1.640956    0.092201
C       0.126034    0.122502    0.016307
C       0.837727   -0.644032   -1.163694
C       1.929580    0.093526   -1.770729
N       2.832531    0.665863   -2.212541
C       1.382852   -1.710732   -0.105537
O       2.639687   -2.270311   -0.216416
C       1.058425   -0.650592    0.969626
O       1.536396   -0.393319    2.034076
H       1.133207    2.043597   -0.049799
H      -0.527731    2.077124   -0.667355
H      -0.228175    1.958355    1.076509
H      -0.892421   -0.272604    0.106788
H       0.182001   -1.051164   -1.933821
H       0.659055   -2.531436   -0.055781
H       3.304782   -1.579747   -0.105937
