18

C      -0.287565    1.638039    0.105751
C      -0.082154    0.136796    0.114898
C      -1.331214   -0.650578   -0.265539
O      -1.784137   -0.328867   -1.564402
O       1.005498   -0.251846   -0.826215
C       1.815437   -0.686503    0.193525
O       2.943617   -1.055991    0.119668
C       0.753182   -0.449596    1.288751
N       1.020852    0.378612    2.438684
H       0.666499    2.169338    0.157365
H      -0.804623    1.935305   -0.809005
H      -0.893088    1.932010    0.967870
H      -1.119681   -1.727154   -0.168744
H      -2.145476   -0.404965    0.424780
H      -1.060824   -0.532223   -2.169493
H       0.342374   -1.405357    1.630285
H       1.465499   -0.164560    3.170326
H       1.654583    1.137306    2.210100
