19

C      -0.093492    1.482269    0.047968
C       0.046739   -0.021903   -0.008553
O      -0.240210   -0.704875    1.214921
C       1.132093   -0.700406    0.737809
C       1.695031   -1.968467    0.228916
C       1.235414   -2.553253   -0.884217
C       0.134418   -2.003213   -1.697381
C      -1.289308   -1.933433   -1.168426
C      -0.476589   -0.674689   -1.263619
H       0.438826    1.954271   -0.784832
H      -1.148259    1.771170   -0.019964
H       0.307608    1.872209    0.986462
H       1.790345   -0.095638    1.360573
H       2.519360   -2.408950    0.781318
H       1.697388   -3.471614   -1.237635
H       0.220677   -2.177507   -2.765957
H      -2.091637   -2.079859   -1.882700
H      -1.466694   -2.318187   -0.171911
H      -0.726383    0.020996   -2.057304
