16

O      -0.463666    0.161962   -0.076548
C      -0.012108    1.275191   -0.001455
C       1.398361    1.666356   -0.391350
C       1.412776    2.852634   -1.334183
C       1.223696    4.255021   -0.824965
C       2.586421    3.829676   -1.350665
C       3.688243    3.668437   -0.448891
C       4.616029    3.529029    0.304750
H      -0.632011    2.121906    0.374983
H       1.939677    1.931645    0.527220
H       1.894939    0.795131   -0.828375
H       0.995788    2.647493   -2.316202
H       0.652220    4.957491   -1.420568
H       1.144360    4.400936    0.246557
H       2.856214    4.210336   -2.331213
H       5.437734    3.411695    0.966839
