16

O      -0.051255   -0.004092   -0.073774
C      -0.104236    1.208454   -0.021858
C      -1.238458    2.113134    0.069582
C      -0.752472    3.381826    0.063585
N       0.606534    3.450109   -0.100947
C       1.154767    2.109608   -0.050829
C       2.246153    1.799225    1.007709
O       3.232857    1.543941   -0.003857
C       2.265025    1.726872   -1.056311
H      -2.274446    1.817914    0.113156
H      -1.314426    4.304672    0.143900
H       1.129904    4.237003    0.249061
H       2.517530    2.639327    1.660495
H       2.031623    0.910261    1.611969
H       2.058728    0.792922   -1.590765
H       2.550170    2.518352   -1.758229
