11

C      -0.007569    1.435699    0.009816
N      -0.028911   -0.012845    0.002117
N      -0.008912   -0.711275   -1.126995
C       0.033145   -1.978726   -0.709096
C       0.041242   -1.986310    0.691274
N       0.004116   -0.723457    1.123321
H       1.021670    1.807669    0.001593
H      -0.528311    1.791988   -0.878761
H      -0.510438    1.781696    0.912598
H       0.046803   -2.795148   -1.413064
H       0.062982   -2.810297    1.386161
