20

C      -0.227188    1.507775   -0.072930
C       0.050995    0.011633    0.064809
C       1.105982   -0.557736   -0.995320
N       2.234247   -1.158674   -0.206869
C       1.507006   -1.794814    0.954159
C       2.385053   -1.229681    2.097415
C       1.147539   -0.560637    2.787044
C       0.864499   -0.415369    1.268155
C       2.372819   -0.194213    0.945579
H       0.697430    2.090637    0.003869
H      -0.683148    1.735824   -1.042252
H      -0.910963    1.860566    0.706290
H      -0.890743   -0.544097   -0.006647
H       0.666170   -1.324821   -1.639115
H       1.495631    0.241566   -1.633920
H       1.002557   -2.761121    0.885753
H       3.251423   -1.694222    2.567466
H       0.486483   -1.223152    3.353779
H       1.338196    0.359329    3.347442
H       2.910106    0.753245    0.870563
