25

C      -0.049592    1.501350   -0.092881
C      -0.023638    0.011479    0.208534
O      -1.302860   -0.519824   -0.073798
C      -1.409234   -1.938103   -0.005789
C      -1.427827   -2.443411    1.440030
C      -2.685166   -2.321945   -0.754255
C      -2.675781   -1.894724   -2.216011
O      -3.868896   -2.351988   -2.819149
C      -3.977499   -1.971774   -4.167629
H       0.925226    1.951300    0.118454
H      -0.294384    1.676739   -1.144360
H      -0.803236    2.002521    0.521219
H       0.740155   -0.493742   -0.406906
H       0.251931   -0.153921    1.261905
H      -0.541572   -2.382177   -0.526241
H      -2.270990   -2.004855    1.983145
H      -1.529752   -3.532952    1.463119
H      -0.506698   -2.186010    1.970125
H      -2.818797   -3.408099   -0.702955
H      -3.547221   -1.865932   -0.253990
H      -2.596105   -0.800147   -2.290238
H      -1.798255   -2.321332   -2.735261
H      -4.926900   -2.360765   -4.544653
H      -3.969993   -0.876231   -4.287274
H      -3.158059   -2.384861   -4.778615
