20

C       0.168384    1.553731   -0.145444
C       0.055104    0.046917    0.102384
C      -1.395611   -0.485816    0.041893
C      -2.269155    0.059636    1.203921
O      -1.735894   -0.241609    2.472033
O      -2.097939   -0.116448   -1.128861
C      -1.599845   -0.618832   -2.359273
C      -1.361522   -1.966282    0.188281
N      -1.350224   -3.112626    0.339647
H       1.221652    1.845199   -0.185258
H      -0.300806    1.843169   -1.089595
H      -0.300287    2.134091    0.654021
H       0.664724   -0.500604   -0.623655
H       0.444908   -0.206993    1.092428
H      -2.304794    1.147635    1.118184
H      -3.288153   -0.323661    1.067651
H      -1.842316   -1.186946    2.628006
H      -0.614757   -0.204378   -2.608169
H      -1.535097   -1.714583   -2.350733
H      -2.315088   -0.310626   -3.124249
