14

O       0.151317    1.388303    0.114491
C       0.093372   -0.007509    0.082919
C      -1.378940   -0.540152    0.069995
C      -2.114929   -0.040784   -1.213472
O      -1.597107    0.674083   -2.025387
C      -1.409727   -2.000442    0.030917
C      -1.409779   -3.196872   -0.072505
C      -2.137955   -0.028685    1.221806
N      -2.762310    0.383337    2.101980
H      -0.133788    1.700528   -0.753008
H       0.593588   -0.440060   -0.793114
H       0.584770   -0.383500    0.983027
H      -3.148896   -0.419110   -1.319107
H      -1.412462   -4.257868   -0.137420
