17

O       0.060189    1.450702    0.069162
C       0.103615    0.041485    0.191667
C      -1.270461   -0.557394    0.052754
C      -2.384562   -0.332978    1.098373
C      -2.781767   -1.837412    0.980583
C      -1.640708   -2.061013   -0.066604
C      -2.071273   -1.678780   -1.475655
O      -2.511882   -2.208125   -2.443647
O      -1.791139   -0.335966   -1.312204
H      -0.306937    1.645843   -0.801018
H       0.777325   -0.415503   -0.550017
H       0.503760   -0.175131    1.187633
H      -1.998914   -0.059172    2.082672
H      -3.136129    0.397637    0.797238
H      -2.609437   -2.400235    1.899049
H      -3.789237   -2.056543    0.623345
H      -0.962561   -2.903931    0.050226
