20

O       0.062166    0.066769    0.397322
C       0.010930    1.239322    0.076130
N      -1.179774    1.879464   -0.149728
C      -1.340041    3.293439   -0.459263
C      -1.050998    4.238295    0.726588
C       0.203537    3.822990    1.520509
C       1.359490    3.413239    0.626349
C       2.234011    2.239086    0.995282
C       1.239766    2.104224   -0.124727
H      -1.998216    1.311769    0.011523
H      -0.683860    3.549549   -1.296902
H      -2.363610    3.440493   -0.815159
H      -0.935116    5.252944    0.325677
H      -1.911370    4.266873    1.405154
H       0.505852    4.635138    2.191027
H      -0.054281    2.977439    2.168208
H       1.839835    4.229031    0.090998
H       3.286856    2.273966    0.738967
H       2.016245    1.708453    1.916417
H       1.633415    2.059995   -1.136820
