17

O       0.053749    1.257795    0.936344
C      -0.001177    0.070772    0.212799
C      -0.604916   -1.183316    0.781876
C      -1.297233   -0.463817   -0.364198
C      -2.566743    0.289296   -0.136191
C      -3.632660   -0.192467    0.776026
O      -2.770536    0.866933    1.172791
C      -3.028268    1.197727   -1.241640
O      -2.632089    1.134820   -2.375019
H      -0.743279    1.319571    1.476562
H       0.886516   -0.024201   -0.403225
H      -0.142030   -2.144280    0.586004
H      -1.055549   -1.091449    1.765749
H      -1.247521   -0.905972   -1.353468
H      -4.670044    0.096773    0.616224
H      -3.474177   -1.147021    1.272817
H      -3.789783    1.938427   -0.910835
