16

C       1.460101   -0.024152   -2.927875
C       1.097677   -1.313922   -2.366146
C       0.792771   -2.387143   -1.912594
C       0.427610   -3.664046   -1.382978
N      -0.078152   -4.584151   -2.079926
O       0.733366   -3.675453   -0.004607
C       0.506586   -4.751351    0.804722
C       0.947443   -4.423272    2.208261
O       0.029224   -5.797804    0.451756
H       1.911644    0.626245   -2.171614
H       2.179198   -0.142722   -3.745552
H       0.579295    0.486982   -3.331315
H      -0.265760   -5.412438   -1.516689
H       2.010038   -4.164627    2.213868
H       0.399312   -3.551542    2.576583
H       0.766030   -5.281744    2.853519
