21

C      -0.090301    1.654776   -0.059105
C       0.101021    0.147749    0.062101
C       1.141592   -0.629563   -0.797093
O       2.389345    0.045108   -0.880775
C       2.870748    0.470414    0.397999
C       2.281872   -0.420305    1.485158
C       2.490418   -1.894984    1.035331
C       1.145218   -1.756235    0.314359
C       0.720496   -0.595808    1.270785
H       0.848509    2.209657   -0.052030
H      -0.603020    1.898376   -0.996417
H      -0.711832    2.031658    0.761148
H      -0.871392   -0.335672   -0.105504
H       0.881858   -0.908752   -1.820004
H       3.963465    0.379705    0.370264
H       2.630449    1.526766    0.573051
H       2.623930   -0.122081    2.478416
H       3.384847   -2.115641    0.444733
H       2.418310   -2.601002    1.867413
H       0.511984   -2.618643    0.099378
H       0.142890   -0.749304    2.184448
