20

C       0.001898    1.528873   -0.091048
C       0.056536    0.009803    0.049744
C       0.127930   -0.591773   -1.362250
C       0.092224   -2.087573   -1.373336
C      -0.014161   -2.705251   -0.202466
C      -0.090756   -1.864990    1.024389
C       0.873811   -0.658411    1.203427
C      -0.217661   -0.125987    2.144931
N      -1.052566   -0.631543    0.957894
H       0.145532    2.079897    0.838006
H       0.777852    1.860768   -0.789054
H      -0.966251    1.823688   -0.511217
H      -0.704004   -0.186336   -1.956056
H       1.039963   -0.225695   -1.855886
H       0.146977   -2.615159   -2.320820
H      -0.053898   -3.785077   -0.104547
H      -0.276631   -2.452976    1.926118
H       1.961797   -0.685222    1.342441
H      -0.403300   -0.692053    3.061820
H      -0.300898    0.941550    2.337095
