18

O      -0.107788    1.461578   -0.069298
C       0.023627    0.050545   -0.117122
C      -1.362082   -0.548105    0.142688
C      -1.386612   -2.041760    0.095267
C      -1.633891   -2.882110    1.108465
N      -1.584165   -4.224239    0.698122
C      -1.302421   -4.333545   -0.651756
O      -1.202758   -5.361216   -1.280181
C      -1.148614   -2.882277   -1.141608
H       0.755904    1.851589   -0.231762
H       0.397689   -0.282319   -1.098564
H       0.728669   -0.317894    0.644651
H      -1.707278   -0.198996    1.122196
H      -2.049405   -0.123879   -0.601908
H      -1.860068   -2.649134    2.139854
H      -1.752214   -5.025221    1.283216
H      -1.872027   -2.688268   -1.942778
H      -0.154197   -2.755338   -1.584735
