19

C       0.654780    1.681942   -0.028966
C       0.134788    0.236030    0.039004
C       0.626330   -0.669150   -1.126308
O       0.840765    0.092503   -2.297477
C       1.888689   -1.388972   -0.574916
C       1.642027   -1.378223    0.907371
C       0.678293   -0.506309    1.244062
C       0.233611   -0.273274    2.619748
O      -0.616519    0.529418    2.939454
H       1.748865    1.714919   -0.036913
H       0.297752    2.172882   -0.936693
H       0.299768    2.239843    0.840945
H      -0.958839    0.271027    0.064801
H      -0.144884   -1.433995   -1.305002
H       1.029500   -0.511700   -3.021630
H       2.027007   -2.396141   -0.984629
H       2.791905   -0.815574   -0.827607
H       2.193516   -1.990552    1.614535
H       0.740120   -0.907898    3.382156
