17

O      -0.023124    1.434030    0.047332
C       1.269688    0.812694    0.040132
C       0.037974    0.000944    0.048058
C      -0.043359   -0.653939   -1.333315
C      -0.223132    0.318319   -2.511336
C       1.058086    1.162649   -2.519600
C       1.010681   -0.166690   -3.232775
C       1.430973   -0.790980   -1.858098
C       1.891158    0.620960   -1.345761
H       1.879285    1.001570    0.920115
H      -0.368085   -0.479534    0.934574
H      -0.653601   -1.555974   -1.390069
H      -1.144905    0.704844   -2.924860
H       1.062721    2.159676   -2.939105
H       1.186192   -0.443085   -4.261029
H       2.023759   -1.688861   -1.693805
H       2.960193    0.825611   -1.413316
