18

O      -0.123933    1.336405    0.094917
N       0.023938   -0.070197    0.096706
C      -1.100584   -0.646563    0.088840
C      -2.585517   -0.319383    0.003424
C      -2.645421   -1.585893   -0.919620
C      -1.503568   -2.107272    0.016120
C      -2.243391   -2.244893    1.372814
O      -1.379295   -2.370118    2.479201
C      -3.085568   -0.914098    1.341628
H       0.792509    1.632012    0.071433
H      -2.948312    0.656984   -0.306534
H      -3.582370   -2.150512   -0.922090
H      -2.303093   -1.395626   -1.937650
H      -0.813078   -2.900364   -0.261216
H      -2.877197   -3.134994    1.395240
H      -0.715354   -1.672201    2.415583
H      -2.845841   -0.292462    2.207844
H      -4.164773   -1.091401    1.331765
