19

O      -0.029474    1.427473   -0.132521
C       0.053507    0.046733    0.197310
C      -1.320796   -0.597277    0.112257
C      -1.984876   -0.788111   -1.280719
O      -2.229286    0.293824   -2.110638
C      -1.057534   -2.014629   -1.545343
C      -1.565484   -2.122087   -0.068899
O      -1.221443   -3.052804    0.888069
C      -2.995193   -1.761161   -0.602067
H      -0.500102    1.489697   -0.972185
H       0.793150   -0.467127   -0.432961
H       0.426504   -0.000979    1.225732
H      -1.987815   -0.128116    0.843429
H      -2.551394   -0.024582   -2.960789
H      -1.442156   -2.766459   -2.241854
H       0.003907   -1.829754   -1.707244
H      -1.481252   -3.926442    0.576299
H      -3.689805   -1.323508    0.118410
H      -3.476294   -2.502582   -1.247545
