17

C      -0.000136    1.521923   -0.004986
C       0.007271    0.015404   -0.006926
C      -0.040142   -0.698694   -1.203238
C      -0.015148   -2.085222   -1.198786
F      -0.060190   -2.745401   -2.367236
C       0.055560   -2.796246   -0.012769
C       0.095502   -2.092593    1.186459
C       0.073509   -0.694268    1.209577
N       0.185433   -0.000151    2.424392
H       0.864517    1.923978    0.536596
H       0.021690    1.918287   -1.022637
H      -0.898105    1.928046    0.482136
H      -0.092567   -0.176235   -2.152389
H       0.073056   -3.879435   -0.032343
H       0.147950   -2.638032    2.124312
H      -0.048083   -0.558902    3.233256
H      -0.307471    0.881343    2.451124
