15

C      -0.017535    1.520413    0.051353
C      -0.003542    0.025808   -0.067460
C      -0.034781   -0.663435   -1.241719
C      -0.016074   -2.088297   -1.218011
C       0.032335   -2.756302   -0.039239
F       0.050562   -4.084491    0.007701
C       0.067597   -2.080601    1.250809
O       0.111386   -2.604992    2.348729
N       0.045116   -0.685254    1.104649
H       0.881898    1.886972    0.560158
H      -0.061419    1.981727   -0.936390
H      -0.883780    1.865050    0.628434
H      -0.073381   -0.130587   -2.181786
H      -0.040397   -2.654745   -2.142780
H       0.068865   -0.193198    1.988472
