17

O      -0.807023    0.962729    0.420871
C       0.228109    0.938210   -0.196515
C       1.372069    1.852616    0.056229
O       2.269315    2.022599   -1.061541
C       2.772694    1.339274    0.078992
C       3.579837    2.180090    1.059805
C       2.635038    3.272708    1.570630
C       2.045090    4.263425    0.601924
C       1.253625    3.035375    0.981244
H       0.418136    0.211623   -1.016500
H       3.030644    0.295281   -0.091288
H       3.895646    1.536756    1.888661
H       4.487756    2.574566    0.590196
H       2.744818    3.583443    2.603509
H       1.708592    5.209107    1.012575
H       2.440997    4.314825   -0.404828
H       0.340309    3.112565    1.555815
