19

C       0.078037    1.322023    0.162985
N      -0.205281   -0.074553   -0.103862
C       0.527292   -0.691743   -1.122333
C       1.204391   -0.123865   -2.181838
N       1.724165   -1.145891   -2.948745
C       1.404553   -2.364267   -2.395409
C       0.663279   -2.105933   -1.262776
O       0.119125   -2.958141   -0.347438
C       0.361544   -4.327347   -0.584555
H       1.146550    1.532792    0.341901
H      -0.241632    1.934612   -0.688462
H      -0.494469    1.647949    1.035088
H      -0.223170   -0.645638    0.729960
H       1.348836    0.907822   -2.453006
H       2.254306   -1.020019   -3.789911
H       1.723961   -3.289197   -2.842789
H       1.438743   -4.548011   -0.585523
H      -0.121017   -4.882169    0.222333
H      -0.062091   -4.646188   -1.547620
