21

C       0.044110    1.589768    0.011163
C       0.077551    0.058734    0.003256
C       0.736162   -0.515929   -1.248938
C       2.212677   -0.363165   -1.557817
C       1.665898   -1.697505   -1.127100
O       2.008245   -2.160356    0.156933
C       0.954590   -2.014257    1.109186
C       0.687606   -0.522620    1.303227
O       1.892982    0.124534    1.694772
H       1.054803    1.996531    0.087381
H      -0.418540    1.975544   -0.902999
H      -0.530714    1.963470    0.865633
H      -0.960475   -0.305061   -0.007641
H       0.085958   -0.521577   -2.119528
H       2.510003   -0.236325   -2.593184
H       2.830456    0.170001   -0.844682
H       1.604434   -2.503632   -1.854819
H       0.047467   -2.543496    0.784150
H       1.321992   -2.470332    2.032452
H      -0.027920   -0.370376    2.120808
H       2.611851   -0.393692    1.311557
