18

C      -0.651589    1.293828   -0.048887
C      -0.118907   -0.118513   -0.010402
C       1.297656   -0.464806   -0.357483
O       2.229578    0.530114   -0.694764
C       2.730795    1.403036    0.225298
N       3.520712    2.291323   -0.231072
C       2.338686    1.229075    1.631261
C       1.480942    0.285126    2.034842
C       0.850691   -0.633163    1.074681
H      -0.900954    1.574983   -1.077121
H      -1.560234    1.380776    0.555486
H       0.069087    2.022524    0.325694
H      -0.838644   -0.872883   -0.318549
H       1.488224   -1.346037   -0.960065
H       3.844650    2.884932    0.530569
H       2.808761    1.905025    2.337186
H       1.246361    0.170421    3.089453
H       0.666964   -1.639710    1.436724
