21

C      -0.087012    1.573635   -0.036932
C       0.029661    0.045252   -0.029650
C       0.677449   -0.487538   -1.321391
C       1.016052   -1.953115   -1.251043
C       1.230527   -2.610336   -0.111089
C       1.190109   -1.947427    1.232141
O       2.525762   -1.564679    1.691290
C       2.242668   -0.169061    1.467109
C       0.745630   -0.464824    1.220687
H       0.902165    2.045816   -0.048864
H      -0.631422    1.924773   -0.919837
H      -0.618134    1.935411    0.849849
H      -0.986352   -0.373151    0.007100
H       0.008290   -0.296035   -2.169245
H       1.592738    0.082386   -1.543904
H       1.106059   -2.480754   -2.198142
H       1.496388   -3.664322   -0.128731
H       0.710763   -2.592064    1.978325
H       2.485201    0.443911    2.342424
H       2.790540    0.225247    0.599459
H       0.152405   -0.221520    2.106645
