15

C      -0.008999    1.423400    0.011879
O      -0.022413    0.012866   -0.049282
C       0.635326   -0.570917    1.052953
C       0.598495   -2.020504    0.952364
C       0.587550   -3.230448    0.902088
C       0.571897   -4.582541    0.840048
C       0.560565   -5.796508    0.788939
C       0.527185   -7.230300    0.694659
O       1.018462   -7.980778    1.507674
H       1.017332    1.822108    0.006965
H      -0.535214    1.785715   -0.873174
H      -0.521411    1.797491    0.911786
H       1.687841   -0.238929    1.106300
H       0.163660   -0.262499    2.003355
H       0.002247   -7.609700   -0.205156
