22

C      -0.166461    1.599952   -0.104539
C      -0.010989    0.099327    0.031638
C       0.911494   -0.624891   -0.988619
C       1.596183   -1.417058    0.159606
C       0.710644   -0.700029    1.207945
C       1.384862   -0.130152    2.432695
N      -0.508665   -1.548667    1.449837
C      -1.605272   -0.624931    1.788506
C      -1.228419   -0.748907    0.368175
H       0.809195    2.098648   -0.125743
H      -0.682006    1.852339   -1.039864
H      -0.745309    2.030570    0.718712
H       0.395351   -1.217586   -1.749320
H       1.590725    0.063279   -1.499150
H       1.457603   -2.500142    0.149854
H       2.661508   -1.197814    0.267201
H       2.217293    0.522478    2.149629
H       0.700706    0.452560    3.056865
H       1.789206   -0.943478    3.047100
H      -2.500483   -1.144238    2.116370
H      -1.394162    0.290476    2.336133
H      -1.868495   -1.240070   -0.360470
