20

O      -0.197764    1.427021   -0.053777
C      -0.012416    0.017070    0.032972
C       0.592738   -0.573050   -1.233589
C       0.170693   -0.084424   -2.563759
N       1.528236    0.211732   -2.056860
C       0.818246   -0.332980    1.266353
C       0.159892   -0.113112    2.644758
C       0.320840   -1.638946    2.802122
O       0.897277   -1.758083    1.480507
H       0.622533    1.857583    0.211442
H      -1.015598   -0.407068    0.169494
H       0.872969   -1.617458   -1.121353
H       0.133091   -0.765723   -3.408665
H      -0.545752    0.731562   -2.590718
H       1.522389    1.175750   -1.727592
H       1.825108    0.104226    1.160883
H       0.725078    0.496158    3.350885
H      -0.867972    0.250538    2.597682
H       1.023525   -1.961983    3.579149
H      -0.604227   -2.219008    2.896301
