17

C      -0.061646    1.538856   -0.064555
C       0.031313    0.017435    0.048179
C       0.760580   -0.447766    1.272727
N       1.275922    0.302914    2.170093
C       1.878156   -0.590664    3.166199
C       1.621430   -2.017276    2.687213
N       1.983412   -3.086567    3.268956
N       0.918189   -1.818781    1.500203
H       0.933669    1.987666   -0.095836
H      -0.602064    1.819906   -0.972579
H      -0.581806    1.961268    0.798026
H      -0.972056   -0.430825    0.054667
H       0.534949   -0.404463   -0.832786
H       2.951945   -0.396869    3.262466
H       1.436361   -0.423737    4.154544
H       1.693939   -3.918987    2.752674
H       0.579975   -2.553544    0.901728
