18

C      -0.321300    1.357780    0.002012
C       1.129825    0.943090   -0.032375
C       0.044644   -0.094392    0.030604
C      -0.191411   -1.131808    1.146657
C      -0.526174   -2.189078    0.056459
C      -1.977339   -2.155048   -0.457277
O      -1.667682   -1.144305   -1.445747
C      -0.279119   -1.124169   -1.052278
H      -0.703432    1.800473    0.916462
H      -0.774144    1.744515   -0.904821
H       1.674654    1.053743   -0.965067
H       1.731357    1.102496    0.857313
H       0.708783   -1.370582    1.720527
H      -1.003075   -0.914969    1.848861
H      -0.027580   -3.155561    0.106128
H      -2.321507   -3.081193   -0.934710
H      -2.737210   -1.820581    0.261178
H       0.395013   -1.217656   -1.909091
