17

C       0.035281    1.510510   -0.000898
C      -0.064666    0.024950    0.103800
O       1.072914   -0.782978   -0.257209
C       0.522523   -0.944372    1.064995
C       1.410607   -0.759792    2.250354
C      -0.712619   -1.825513    0.932636
N      -1.864861   -0.976098    1.342702
C      -1.300666   -0.854777   -0.029984
H       0.984338    1.866114    0.408940
H      -0.022087    1.834524   -1.046179
H      -0.786120    1.980015    0.548777
H       2.037148    0.128241    2.132137
H       0.806779   -0.649348    3.156153
H       2.072465   -1.623142    2.382486
H      -0.776991   -2.906478    0.925476
H      -2.704889   -1.553632    1.273444
H      -1.898488   -1.055119   -0.910411
