14

C      -0.059684    1.508891   -0.035232
C       0.016825    0.009648    0.031535
N       0.149066   -0.638856   -1.144533
C       0.216170   -1.960857   -1.079806
N       0.167905   -2.724777    0.016121
C       0.037533   -2.069366    1.164810
O      -0.015766   -2.791599    2.294068
C      -0.044543   -0.676853    1.234960
H       0.841118    1.908291   -0.511750
H      -0.907956    1.812640   -0.656666
H      -0.166179    1.956459    0.955289
H       0.322821   -2.491073   -2.023675
H       0.057195   -3.718877    2.024603
H      -0.150456   -0.174678    2.187968
