17

C       0.138775    1.563095   -0.097227
C      -0.069547    0.048339    0.073227
C       0.568226   -0.491380    1.316758
C      -0.073386   -1.067022    2.362081
C       0.700361   -1.519527    3.472416
C       2.048570   -1.375087    3.484309
C       2.744642   -0.758694    2.376324
O       3.923192   -0.563680    2.252771
O       1.907610   -0.343091    1.315089
H       1.203878    1.805450   -0.117978
H      -0.311220    1.905182   -1.033104
H      -0.322033    2.117178    0.726166
H      -1.136258   -0.192633    0.098122
H       0.362261   -0.474390   -0.789429
H      -1.149091   -1.175819    2.341655
H       0.196823   -1.984518    4.314682
H       2.668056   -1.705321    4.307905
