21

C      -0.071703    1.507039    0.021660
C      -0.038953    0.052072    0.005886
C      -0.013490   -1.153971   -0.012393
C       0.038340   -2.576631   -0.007302
C      -0.294627   -3.422399   -1.216581
C      -1.111056   -3.615245    0.024988
C      -0.359314   -4.445451    1.076167
C      -0.106271   -5.923717    0.805126
C       0.837002   -3.435881    0.994550
H       0.730380    1.913300    0.648406
H       0.055235    1.923309   -0.984336
H      -1.021164    1.884856    0.418507
H      -0.793682   -2.889964   -2.018827
H       0.410334   -4.179360   -1.553265
H      -2.176533   -3.416814    0.031365
H      -0.851297   -4.335620    2.047621
H       0.375857   -6.081428   -0.165200
H       0.545401   -6.355765    1.572694
H      -1.043906   -6.490545    0.806720
H       1.783369   -3.831550    0.610087
H       1.027010   -2.925347    1.939933
