18

O      -0.115400    1.490352   -0.051442
C       0.054028    0.074110   -0.061083
C      -1.345219   -0.523017    0.090145
C      -1.357230   -2.034111   -0.222252
C      -0.882950   -2.293728   -1.673377
C       0.299279   -1.440527   -2.048751
C       0.716810   -0.398848   -1.333042
C      -0.532682   -2.776281    0.740006
N       0.111530   -3.360217    1.501865
H       0.757104    1.896324   -0.033877
H       0.670148   -0.231591    0.800696
H      -1.729519   -0.329012    1.094456
H      -2.006101   -0.018486   -0.622495
H      -2.380498   -2.409967   -0.111058
H      -0.643691   -3.354532   -1.804809
H      -1.720607   -2.087393   -2.353731
H       0.819431   -1.713688   -2.963420
H       1.588471    0.167699   -1.655288
