18

C       0.048483    1.464079   -0.236267
C       1.295465    0.700603    0.028412
C       1.868133    0.642443    1.467589
C       0.664925    0.146156    2.232759
C       0.048427   -0.663960    3.401504
C      -1.095118   -0.114550    2.475672
O      -0.403856    1.178704    2.472488
C      -0.250683   -0.579182    1.244318
N      -0.034496   -0.001252   -0.079343
H      -0.341901    2.104354    0.541263
H      -0.153714    1.782894   -1.256352
H       1.993843    0.515470   -0.782775
H       2.692504   -0.076118    1.518340
H       2.229801    1.611083    1.822398
H       0.232868   -1.740519    3.436551
H       0.085807   -0.184809    4.379238
H      -2.170663   -0.114977    2.653759
H      -0.130982   -1.663147    1.165473
