17

C       0.019878    1.444427   -0.117366
C       1.485078    1.885036    0.115357
C       2.233105    0.573953    0.002861
N       3.537466    0.418742   -0.122244
C       3.984217   -0.850315   -0.170968
C       3.147961   -1.958098   -0.092433
C       1.767565   -1.785891    0.045521
C       1.303875   -0.478875    0.095131
N       0.014829    0.017336    0.269897
H      -0.697552    2.008845    0.483495
H      -0.249766    1.568615   -1.176864
H       1.822679    2.636616   -0.601068
H       1.613775    2.306625    1.120226
H       5.057248   -0.976598   -0.281866
H       3.570538   -2.955844   -0.142336
H       1.096309   -2.636423    0.106748
H      -0.745376   -0.538921   -0.094419
