18

C       0.127405    1.356078    0.290245
C      -0.020770   -0.099571    0.010874
N       0.276800   -0.700232   -1.066971
C      -0.061899   -2.114101   -0.871539
C      -0.553098   -2.211601    0.600241
C       0.349069   -3.048241    1.513540
C      -0.100362   -3.029703    2.960865
O      -0.346826   -4.016715    3.605676
O      -0.540289   -0.831949    1.043512
H       0.779924    1.513443    1.154684
H       0.546464    1.855465   -0.582390
H      -0.845494    1.794553    0.533544
H      -0.833463   -2.415978   -1.587809
H       0.815675   -2.744188   -1.054998
H      -1.587084   -2.562944    0.670755
H       0.375191   -4.086372    1.168888
H       1.366457   -2.636251    1.460173
H      -0.195154   -2.013796    3.400884
