20

C      -0.167279    1.572131   -0.010309
C       0.024466    0.055232    0.010641
C       0.890124   -0.512280   -1.147938
N       1.605395   -1.692566   -0.610537
C       2.563279   -1.443371    0.475349
C       1.185658   -1.942325    0.763530
C       0.763787   -0.519943    1.227942
C       2.285685   -0.137891    1.224687
O       2.896230   -0.233106    2.496675
H       0.788157    2.104513    0.049844
H      -0.663298    1.891442   -0.932976
H      -0.788885    1.905408    0.827589
H      -0.965747   -0.418127   -0.034046
H       0.280321   -0.833856   -1.997364
H       1.610139    0.224528   -1.521579
H       3.517629   -1.957838    0.451199
H       0.812893   -2.911963    1.069890
H       0.267655   -0.398852    2.191896
H       2.564406    0.803217    0.729074
H       2.616240    0.526328    3.017530
