17

N       1.094466   -1.026907    0.526230
C      -0.037253   -0.283907    0.682308
O       0.011468    0.764700    1.317076
C      -1.296360   -0.816538    0.049574
C      -1.174984   -1.596543   -1.266245
C      -1.487971   -2.337358   -0.020086
C      -2.617489   -0.062041    0.166303
N      -2.597558    1.093765    0.858330
O      -3.621625   -0.521589   -0.358982
H       1.936097   -0.670247    0.947220
H       1.136371   -1.891822    0.020133
H      -1.992543   -1.431337   -1.956731
H      -0.189911   -1.667528   -1.712776
H      -0.733943   -2.955256    0.453645
H      -2.512424   -2.661735    0.113026
H      -1.726275    1.412700    1.266350
H      -3.461880    1.601932    0.943113
