16

N       0.025871    1.134515    0.342673
C       0.093753   -0.220321    0.299824
O       1.117865   -0.871350    0.324556
C      -1.268424   -0.870552    0.202074
N      -2.339973   -0.203249    0.011130
C      -3.451145   -1.166138   -0.082604
C      -2.782383   -2.537985    0.010099
C      -1.739775   -2.891434   -0.983388
N      -1.352421   -2.287018    0.318175
H       0.880799    1.664015    0.336372
H      -0.865749    1.590350    0.238148
H      -4.145973   -1.002530    0.749528
H      -4.012812   -0.996246   -1.007959
H      -3.258561   -3.324995    0.584926
H      -1.434210   -3.925185   -1.105968
H      -1.633420   -2.268436   -1.867735
