16

C      -0.013719    1.567946    0.077001
C       1.428151    2.035948    0.025348
C       2.243163    0.807700    0.303176
O       1.389839   -0.298309    0.490132
C       0.115457    0.032195    0.007024
O      -0.071613   -0.458096   -1.326378
C       0.759854    0.016776   -2.294098
N       1.747907    0.800486   -2.249039
C       2.283176    1.416282   -1.084907
H      -0.475272    1.866650    1.023476
H      -0.638276    1.937275   -0.739564
H       1.690726    3.010510    0.419847
H       3.118412    0.766185    0.939916
H      -0.627706   -0.514736    0.587671
H       0.450426   -0.397777   -3.251890
H       3.189590    1.973611   -1.302772
