13

C       0.156422    1.452948    0.103679
N       0.264723    0.008681    0.067616
C       0.502767   -0.609883   -0.993988
O       0.681651    0.034291   -2.216957
C       0.932500   -0.716778   -3.305418
N       1.038022   -1.978252   -3.399853
O       0.872266   -2.714196   -2.205627
C       0.610276   -2.113618   -1.002561
O       0.481269   -2.794007   -0.033261
H       0.892961    1.830956    0.820446
H       0.298539    1.951309   -0.860005
H      -0.830174    1.709635    0.503547
H       1.055472   -0.128798   -4.206907
