13

O      -0.340155    1.429305    0.242306
C       0.010961    0.076632    0.005534
C       0.653405   -0.584658    1.241020
O      -0.429334   -1.040266    2.057707
C      -1.580042   -1.140920    1.328152
O      -2.603388   -1.535230    1.800538
C      -1.293410   -0.704414   -0.105518
H       0.464897    1.934247    0.396236
H       0.653715   -0.021059   -0.878904
H       1.281167   -1.439882    0.960742
H       1.252310    0.117465    1.827850
H      -2.111453   -0.106650   -0.506688
H      -1.179731   -1.600716   -0.724107
