20

C       0.083443    1.596897   -0.053752
C       0.000080    0.064251   -0.067602
C       0.618922   -0.573742   -1.285888
C       1.576166   -1.701570   -1.248188
N       2.069780   -0.360179   -1.642545
C       1.631548   -0.026343   -3.056764
C       0.804179   -1.055207   -3.798392
C       0.177873   -0.196074   -2.732984
O      -0.869764    0.672206   -2.983397
H       1.126298    1.917694   -0.131840
H      -0.471013    2.028390   -0.889904
H      -0.329433    1.996161    0.877782
H       0.500439   -0.338514    0.820554
H      -1.048610   -0.256410   -0.001181
H       1.949598   -1.991387   -0.269187
H       1.553138   -2.517476   -1.960718
H       2.172370    0.761852   -3.563878
H       0.548149   -0.708191   -4.795781
H       0.940572   -2.129159   -3.732956
H      -1.663739    0.150189   -3.144794
