17

C       0.327742    1.530308    0.138059
C       0.188494    0.084184    0.072639
C       0.061951   -1.112531    0.028553
C      -0.042502   -2.541377   -0.051119
O      -0.534422   -3.251975    1.093077
C      -1.352642   -3.252960   -0.084478
C      -2.610504   -2.564035   -0.039494
C      -3.684363   -2.019307   -0.025982
C      -4.975077   -1.349860    0.003036
H       1.371133    1.836440    0.005525
H      -0.266544    2.022329   -0.639763
H      -0.011192    1.912497    1.107112
H       0.788794   -3.041729   -0.549371
H      -1.365486   -4.211793   -0.604221
H      -5.794006   -2.055692   -0.173321
H      -5.147737   -0.875173    0.975080
H      -5.035268   -0.569440   -0.763510
