12

C      -0.124035    1.488844   -0.105718
N       0.019377    0.041902    0.024041
C       1.340768   -0.518075   -0.166655
C       0.720441   -0.486363    1.201105
C       1.276881    0.399123    2.195810
N       1.697272    1.106654    3.008973
H       0.752239    2.055234    0.242020
H      -0.295757    1.719359   -1.160678
H      -0.996769    1.814181    0.466828
H       1.393897   -1.463868   -0.698112
H       2.172893    0.162785   -0.338127
H       0.290459   -1.394036    1.615010
