21

C      -0.394106    1.581483    0.163153
C      -0.040721    0.098962    0.084009
C       0.453700   -0.503125   -1.242527
C       1.833864   -0.065550   -1.626933
O       2.370119    1.214671   -1.406997
C       1.723759   -1.060740   -0.527278
C       1.242124   -0.463608    0.802111
C       2.167155    0.455884    1.580867
O       1.492511    0.796420    2.791353
H       0.424715    2.213395   -0.185565
H      -1.276608    1.800315   -0.449142
H      -0.618033    1.859923    1.197260
H      -0.901875   -0.479562    0.431835
H      -0.188606   -1.000383   -1.962020
H       2.171281   -0.515737   -2.562582
H       1.954767    1.817937   -2.032523
H       2.181593   -2.039613   -0.617882
H       0.943474   -1.266426    1.483080
H       3.109203   -0.078480    1.790368
H       2.417106    1.345583    0.993842
H       2.009512    1.471653    3.239614
