19

O      -0.094220    1.457515   -0.060776
C      -0.001688    0.053030    0.022680
C       0.296535   -0.601831    1.427607
C      -1.067809   -1.284235    1.319175
C      -2.202495   -0.319789    1.185873
C      -1.358996   -0.656485   -0.031863
C      -1.773595   -1.806218   -0.920407
C      -2.028204   -2.957625    0.111161
O      -1.274195   -2.659084    1.300623
H       0.781295    1.825532    0.098164
H       0.677225   -0.347052   -0.743141
H       1.127107   -1.309129    1.390678
H       0.430246    0.081635    2.271698
H      -3.199534   -0.744911    1.199900
H      -2.130589    0.676105    1.610772
H      -2.662346   -1.634939   -1.535659
H      -0.949917   -2.067086   -1.593538
H      -3.096652   -3.017828    0.357626
H      -1.711154   -3.941322   -0.246678
