20

C      -0.150430    1.521732    0.026001
C      -0.020054    0.006695   -0.028426
O      -1.240531   -0.615093   -0.361844
C       1.142829   -0.500365   -0.912703
N       1.971206   -0.630411    0.309476
C       0.786427   -0.615578    1.169362
C       0.819348   -0.045666    2.597620
O       0.100798   -1.186967    3.110732
C       0.219795   -1.881194    1.851730
H       0.814367    1.986522    0.247082
H      -0.511504    1.901112   -0.934995
H      -0.858732    1.831309    0.804682
H      -1.946318   -0.191554    0.139055
H       0.871843   -1.447895   -1.394456
H       1.543640    0.188047   -1.664217
H       2.550511   -1.461120    0.371020
H       1.835205    0.030521    3.009935
H       0.287536    0.895818    2.782853
H      -0.742340   -2.247926    1.479591
H       0.935579   -2.715488    1.906499
