15

C      -0.454230    1.493514    0.238631
C      -0.010003    0.067427    0.012143
N       0.137970   -0.678978    1.131226
N       0.243511   -0.519059   -1.117162
C       0.145588    0.081687   -2.328236
C       0.393819   -0.461636   -3.567940
N       0.165379    0.507885   -4.497054
N      -0.195278    1.586519   -3.960283
O      -0.225818    1.359674   -2.521608
H       0.281423    2.186955   -0.174386
H      -1.391599    1.683890   -0.288367
H      -0.591031    1.707732    1.301126
H      -0.036546   -0.306071    2.045533
H       0.432534   -1.636947    1.035664
H       0.710732   -1.456540   -3.825350
