22

C      -0.177193    1.533279    0.149753
C      -0.102511    0.005339    0.101692
C       0.928761   -0.569638    1.082960
C       0.984071   -2.070674    1.103965
C       1.092495   -3.029174   -0.075441
C       0.510874   -4.061312    0.906596
C       1.590201   -4.290470    1.980736
C       1.298245   -2.847689    2.346813
N      -0.092959   -2.899733    1.763635
H       0.788865    1.986841   -0.099808
H      -0.917718    1.918393   -0.558102
H      -0.457765    1.885140    1.148832
H      -1.083395   -0.426237    0.332533
H       0.143894   -0.314295   -0.918618
H       1.927769   -0.177605    0.843546
H       0.696990   -0.217653    2.096752
H       0.371285   -2.772483   -0.855402
H       2.071342   -3.226907   -0.526930
H      -0.138210   -4.866543    0.568110
H       1.239803   -4.969498    2.762467
H       2.597229   -4.578651    1.659778
H       1.487404   -2.348550    3.291340
