17

C       0.046986    1.500387   -0.106983
C      -0.041774    0.009041   -0.045503
O       0.442535   -0.724092   -1.175400
C      -0.236923   -1.869076   -0.583478
C       0.673911   -2.160582    0.620634
C       0.343183   -0.809222    1.292971
N      -1.118728   -0.882913    1.572767
C      -1.287493   -0.884309    0.118082
H       1.093262    1.823860   -0.121675
H      -0.442252    1.882085   -1.007916
H      -0.437820    1.935859    0.771049
H      -0.494630   -2.648489   -1.298042
H       0.377110   -3.012225    1.240783
H       1.710926   -2.276280    0.298795
H       0.989037   -0.417291    2.077922
H      -1.405892   -1.738413    2.048228
H      -2.267589   -0.719502   -0.328202
