15

O       0.078955    1.261470    0.657503
C      -0.077339   -0.097962    0.405427
C      -1.519750   -0.425849    0.047195
N      -2.365210    0.516398    0.019792
N      -1.735471   -1.785264   -0.217334
C      -2.926747   -2.383753   -0.565049
N      -4.026736   -1.748184   -0.695755
C      -2.803720   -3.819183   -0.769665
N      -2.740800   -4.960936   -0.939737
H      -0.808674    1.642463    0.531295
H       0.572485   -0.424670   -0.425283
H       0.210055   -0.700310    1.285078
H      -3.302198    0.203951   -0.228844
H      -0.934922   -2.395418   -0.145793
H      -4.787766   -2.369997   -0.956571
