21

C      -0.058040    1.481850   -0.004788
C      -0.012182   -0.023424   -0.008469
C       0.655469   -0.956753   -1.072366
C       0.039289   -1.920042   -0.014933
C       0.604294   -0.965889    1.078626
C      -1.204770   -1.014196   -0.044417
C      -2.509877   -1.027948    0.702406
C      -2.466250   -1.019571   -0.822809
O      -2.904721    0.084792   -1.571917
H       0.950066    1.904531    0.064025
H      -0.514124    1.865007   -0.924609
H      -0.632663    1.860191    0.848892
H       0.203064   -0.961238   -2.066790
H       1.748271   -0.926289   -1.120856
H       0.061093   -3.009993   -0.018819
H       1.693492   -0.935152    1.181518
H       0.105470   -0.981478    2.051028
H      -2.839109   -1.930288    1.210309
H      -2.829973   -0.109393    1.191070
H      -2.764779   -1.931335   -1.332460
H      -2.737123    0.883609   -1.062378
