15

C       0.004737    1.429885   -0.039217
N       0.000556   -0.008519    0.049458
N      -0.046132   -0.771639   -1.095636
N      -0.040830   -2.025404   -0.802801
C       0.010147   -2.136566    0.570140
C       0.046337   -3.055089    1.608356
N       0.092998   -2.303656    2.752373
C       0.089718   -0.940250    2.509733
C       0.037126   -0.833615    1.134966
H       0.915620    1.848272    0.402959
H      -0.034435    1.691857   -1.097112
H      -0.865199    1.857617    0.471175
H       0.043782   -4.130767    1.639012
H       0.125362   -2.699736    3.676863
H       0.121995   -0.227357    3.314224
