11

F       0.036219    0.051981   -0.021856
C      -0.039571    1.374544    0.022926
C      -1.190523    2.044454   -0.103605
C      -1.157505    3.492714   -0.039145
N      -2.189603    4.218344   -0.147184
O       0.099282    4.084492    0.154058
N       1.276760    3.369933    0.282304
C       1.197604    2.088909    0.218459
H      -2.147898    1.564192   -0.251892
H      -1.951645    5.208063   -0.074122
H       2.134430    1.551657    0.321754
