14

N      -0.109633    1.434215    0.321626
C      -0.024631    0.200750    0.045830
C      -1.269685   -0.647346   -0.093683
C      -2.547380    0.180178   -0.059234
O      -3.522499   -0.144923    0.564091
N       1.168402   -0.533993   -0.149327
C       2.453190   -0.050325   -0.067404
O       2.761315    1.094805    0.168975
H       0.813237    1.863769    0.389478
H      -1.246258   -1.183578   -1.055277
H      -1.323169   -1.405896    0.695117
H      -2.521635    1.095114   -0.681155
H       1.074688   -1.519048   -0.348916
H       3.197870   -0.848647   -0.248851
