19

C      -0.074950    1.523435   -0.013736
C      -0.034644    0.002715   -0.040498
C       1.198088   -0.607202   -0.772406
O       1.955721   -0.518912    0.478188
C       0.685808   -0.629551    1.173675
C       0.361976   -2.124714    1.326660
O      -0.979290   -2.208536    1.806518
C       0.539406   -2.802415   -0.021626
C       0.935710   -2.069086   -1.061136
H       0.902967    1.932447    0.257404
H      -0.354699    1.926811   -0.993015
H      -0.809973    1.880777    0.715522
H      -1.003084   -0.427331   -0.301402
H       1.673775   -0.054994   -1.586285
H       0.673091   -0.103317    2.132349
H       1.056595   -2.562977    2.061322
H      -1.206231   -3.137778    1.911807
H       0.331608   -3.867313   -0.095717
H       1.062885   -2.470799   -2.061045
