19

O      -0.018557    1.226728   -0.611318
C       0.052143   -0.138374   -0.237327
C      -1.329463   -0.678280    0.071438
O      -2.183590   -0.666554   -1.120098
C      -2.646723   -2.011929   -0.841253
C      -1.870265   -3.037197   -1.712139
O      -1.447326   -2.553345   -2.953664
C      -0.813904   -3.181944   -0.558567
C      -1.616154   -2.173558    0.312278
H      -0.630066    1.281384   -1.354657
H       0.532639   -0.741432   -1.021140
H       0.679735   -0.189675    0.659546
H      -1.788500   -0.041739    0.839585
H      -3.734781   -2.065576   -0.760093
H      -2.425396   -3.964335   -1.884208
H      -1.375054   -1.594224   -2.842412
H      -0.787833   -4.185718   -0.127902
H       0.205296   -2.900845   -0.829842
H      -1.873437   -2.468468    1.327682
