16

N       0.012275   -1.191236    0.142250
C      -0.016726   -0.037576    0.083524
C      -0.019873    1.421555    0.011347
C       1.415284    2.010994   -0.039725
C       1.409004    3.504982   -0.102097
C       1.332382    4.385060   -1.165757
C       1.319967    5.667236   -0.577600
N       1.383620    5.605374    0.749083
N       1.430640    4.285629    1.011884
H      -0.579840    1.734227   -0.875907
H      -0.559258    1.817370    0.878500
H       1.973793    1.665412    0.836807
H       1.931145    1.610053   -0.916147
H       1.298946    4.131148   -2.213261
H       1.273305    6.629645   -1.065623
H       1.509645    3.984635    1.969378
