15

N       0.011331   -1.153946   -0.385275
C      -0.005155   -0.018491   -0.171375
C      -0.017014    1.407899    0.102528
N      -1.119658    2.017556    0.027709
C      -1.265148    3.458161    0.122570
C      -0.482561    4.176361    1.218318
O       0.922740    4.097918    1.021159
C       1.457717    2.867366    1.337909
O       1.246835    1.845049    0.352610
H      -0.973555    3.884691   -0.847591
H      -2.329964    3.675719    0.258646
H      -0.735571    5.240055    1.204249
H      -0.745548    3.768001    2.206053
H       2.541465    2.974730    1.377438
H       1.060200    2.494680    2.294900
