18

C      -0.140581    1.527787    0.227702
C      -0.036565    0.049433    0.038684
C       0.041250   -0.689922   -1.125853
C       0.070687   -0.316484   -2.570629
C       1.492950   -0.158254   -3.121030
O       1.375015    0.182640   -4.489935
N       0.125360   -1.969419   -0.673994
N       0.093298   -2.035039    0.668630
N      -0.002817   -0.810861    1.100175
H       0.845343    2.002562    0.293160
H      -0.680027    2.001687   -0.598092
H      -0.671473    1.745109    1.157538
H      -0.453012   -1.064324   -3.177324
H      -0.460339    0.629586   -2.714763
H       2.021332    0.619563   -2.549072
H       2.049618   -1.099147   -2.983122
H       2.257013    0.324754   -4.845732
H       0.173756   -2.823300   -1.207408
