19

C      -0.034701    1.552937    0.009517
C       0.025782    0.024798   -0.003687
C       0.746632   -0.516456   -1.247633
N       0.926936   -1.958157   -1.300714
C       0.950235   -2.633363   -0.212884
N       1.167900   -3.982514   -0.196778
C       0.778130   -2.048351    1.180684
O       0.696705   -2.774982    2.147448
C       0.718154   -0.541837    1.244484
H       0.971556    1.987191    0.035907
H      -0.539640    1.934014   -0.884206
H      -0.579794    1.921189    0.884812
H      -1.002295   -0.364953   -0.024347
H       0.200831   -0.216084   -2.150303
H       1.736156   -0.035839   -1.328371
H       1.060948   -4.478140   -1.066192
H       0.931169   -4.457008    0.660045
H       1.755580   -0.173120    1.280642
H       0.236634   -0.245166    2.180803
