16

N      -0.088685    1.281044    0.233357
C       0.008546   -0.018033   -0.160399
O       0.996682   -0.512075   -0.671358
C      -1.272818   -0.843110   -0.008626
N      -0.981008   -2.272335    0.223449
C      -1.302387   -2.189599    1.577284
N      -1.061589   -2.811001    2.650535
C      -2.006059   -0.848978    1.383780
O      -1.716963    0.151149    2.325366
H       0.765839    1.817825    0.203939
H      -0.748211    1.494860    0.969699
H      -1.912902   -0.655445   -0.877324
H      -0.120051   -2.672332   -0.133805
H      -0.458008   -3.622095    2.508455
H      -3.090309   -0.935219    1.260402
H      -1.202898   -0.268660    3.027805
