9

N       0.040317   -1.134014   -0.008470
C       0.011556    0.022239    0.017486
C      -0.006711    1.462629    0.034047
C       0.510940    2.173176    1.243558
N       1.268089    2.208835   -0.006575
H      -0.807244    1.910006   -0.546780
H       0.045831    3.111776    1.528283
H       0.870789    1.562454    2.065883
H       2.049578    1.558624    0.031780
