21

C      -0.049420    1.591975   -0.009374
C       0.046187    0.066446    0.037183
C       1.178472   -0.724293   -0.705711
C       2.158836   -0.407392    0.487388
O       2.784917    0.837135    0.666492
C       0.795314   -0.752327    1.157972
C       0.754619   -1.925264    0.158714
C      -0.232896   -3.015412   -0.058241
C       1.234119   -3.331261    0.241231
H       0.903310    2.088276   -0.201903
H      -0.722555    1.890310   -0.820352
H      -0.475061    1.993371    0.918349
H      -0.947063   -0.353522   -0.152085
H       1.400772   -0.724963   -1.774177
H       2.938490   -1.163148    0.614784
H       2.164008    1.451992    1.062219
H       0.567208   -0.788471    2.226136
H      -0.960548   -3.227802    0.719125
H      -0.593499   -3.204098   -1.064790
H       1.839058   -3.727400   -0.568674
H       1.468932   -3.750772    1.214750
