19

O      -0.752842    1.332261    0.708811
C      -0.101684    0.177523    0.189916
C       0.666717   -0.604151    1.258815
O      -0.289271   -1.394479    1.946686
C      -1.470750   -1.554632    1.153461
C      -2.681263   -0.973352    1.912614
C      -2.937924   -1.641047    3.181412
C      -3.155525   -2.207070    4.219050
C      -1.190259   -0.831712   -0.181531
H      -0.090936    1.891481    1.127732
H       0.538674    0.442228   -0.662710
H       1.434222   -1.238468    0.785788
H       1.169581    0.049897    1.981875
H      -1.635126   -2.627848    0.998528
H      -2.499908    0.095627    2.066435
H      -3.567199   -1.059330    1.269421
H      -3.342211   -2.699361    5.140675
H      -2.068770   -0.335062   -0.597910
H      -0.805402   -1.534567   -0.925547
