15

N       0.630050    0.300840   -0.591038
C      -0.209049    0.215591    0.470394
O      -0.119323    0.881108    1.481534
C      -1.386115   -0.766187    0.282363
C      -1.007186   -2.120186   -0.305618
O      -0.343145   -2.240011   -1.309791
N      -1.505237   -3.207983    0.413657
C      -1.359703   -4.567514    0.120010
O      -0.783445   -5.035351   -0.819353
H       1.457887    0.864726   -0.483717
H       0.597514   -0.416753   -1.302878
H      -1.883914   -0.841489    1.249712
H      -2.088374   -0.305893   -0.423390
H      -2.028888   -2.998134    1.250632
H      -1.866499   -5.176115    0.895936
