20

C       0.376830    1.669100    0.135033
O       1.683393    1.060744    0.140142
C       1.120725   -0.263496    0.070965
C      -0.296242    0.324689   -0.208862
N      -1.457103   -0.037519    0.563083
C      -2.115999   -1.267663    0.206297
C      -1.621532   -2.663083    0.696566
O      -2.935519   -2.981001    1.193919
C      -3.391514   -1.628360    0.994769
H       0.093557    2.053225    1.126460
H       0.296246    2.480258   -0.596439
H       1.589824   -0.871212   -0.711579
H       1.194801   -0.794355    1.032369
H      -0.556313    0.252520   -1.269107
H      -1.257428   -0.006129    1.558716
H      -2.286596   -1.261512   -0.874362
H      -1.279927   -3.382336   -0.056912
H      -0.876512   -2.606869    1.504886
H      -3.484060   -1.077354    1.942688
H      -4.348018   -1.583660    0.463144
