17

C      -0.458015    0.758056    0.192595
N       0.791024    0.142384   -0.201951
C       0.734217   -0.807322   -1.019529
O       1.874005   -1.406155   -1.446781
C       1.721919   -2.505159   -2.309317
C       1.188899   -3.763866   -1.614370
C       1.340619   -5.052416   -2.398103
O       0.675015   -3.708120   -0.524926
H      -0.429878    1.828937   -0.039347
H      -1.347209    0.322174   -0.292056
H      -0.582882    0.670576    1.277818
H      -0.186841   -1.209824   -1.465456
H       1.050195   -2.276900   -3.153734
H       2.709316   -2.705909   -2.736687
H       1.047516   -4.919314   -3.445158
H       2.393775   -5.357822   -2.396600
H       0.740953   -5.838321   -1.938031
