21

C      -0.321099    1.452919    0.072675
C       0.037581   -0.028397   -0.008369
C       0.736001   -0.374968   -1.330319
C       0.794967   -1.865543   -1.675157
C       1.560720   -2.760365   -0.725549
O       2.721342   -2.243290   -0.058237
C       1.606171   -2.643447    0.738551
C       0.906392   -1.603190    1.596116
O       0.882531   -0.290370    1.108153
H       0.580301    2.065803   -0.027715
H      -1.018838    1.729955   -0.722893
H      -0.780872    1.679131    1.038024
H      -0.883921   -0.629327    0.089379
H       0.214352    0.136933   -2.147722
H       1.749630    0.036509   -1.284940
H      -0.223064   -2.272046   -1.763118
H       1.244056   -1.975758   -2.670617
H       1.710132   -3.768294   -1.122047
H       1.765847   -3.573406    1.294019
H      -0.113168   -1.973375    1.810133
H       1.435026   -1.546919    2.555077
