16

O       0.078445    1.405392    0.228718
C      -0.016678    0.015587   -0.050256
C      -1.459186   -0.363110    0.011176
O      -1.861914   -1.587589   -0.619509
C      -2.539839   -0.366485   -0.969430
C      -3.587782   -0.021968    0.134571
C      -3.572322   -1.033847    1.250089
C      -2.463488   -0.020061    1.162017
H       1.006593    1.619938    0.358413
H       0.371177   -0.238787   -1.047985
H       0.545564   -0.579096    0.688171
H      -2.569357   -0.095597   -2.018079
H      -4.371486    0.711139    0.001125
H      -4.294645   -0.847660    2.038649
H      -3.378858   -2.077361    1.036030
H      -2.255524    0.722328    1.919465
