18

C      -0.096518    1.369998    0.191184
C       1.416867    1.490730   -0.164108
C       2.324072    0.233215   -0.029153
C       2.260744   -1.005434    0.882205
C       1.183106   -2.009791    0.338747
C      -0.065831   -1.167119    0.295748
C       0.029504   -0.028053   -0.394653
C       1.315741    0.329586   -1.133468
H      -0.419413    1.453621    1.234205
H      -0.648984    2.089472   -0.424428
H       1.902594    2.445961   -0.339957
H       3.338062    0.505187   -0.318539
H       3.249872   -1.479432    0.900493
H       2.017871   -0.749535    1.919315
H       1.496849   -2.364471   -0.648318
H       1.084973   -2.881499    0.990668
H      -0.785498   -1.262712    1.106352
H       1.510246    0.283709   -2.197396
