21

C       0.063919   -1.197194   -0.467271
C       0.034503   -0.051581   -0.104600
C       0.023737    1.339004    0.341340
C       1.384455    2.009529    0.201994
C       1.791132    2.674380   -1.089022
C       1.533164    3.514775    0.141408
C       0.370088    4.455054    0.212675
C       0.084770    5.217870    1.485124
C       0.610544    5.944394    0.272083
H       0.081226   -2.208076   -0.790796
H      -0.729951    1.893035   -0.230110
H      -0.303699    1.380091    1.388860
H       2.171718    1.481793    0.732782
H       2.808159    2.554344   -1.445532
H       1.048320    2.716420   -1.880385
H       2.419542    3.899500    0.641912
H      -0.501840    4.150903   -0.359319
H      -0.948399    5.375339    1.774771
H       0.761653    5.072332    2.320748
H       1.640121    6.286916    0.292362
H      -0.062652    6.598509   -0.270943
