20

C      -0.039606    1.515356   -0.120826
C       1.303968    0.851400    0.020150
C       0.035393    0.019605    0.039914
C       0.519044   -0.750328   -1.222719
C       0.793714    0.127788   -2.396842
C       1.793665    0.105254   -1.252585
N       0.245770   -2.146014   -1.318019
C       1.250391   -2.999257   -1.941010
C       1.035890   -3.041421   -0.468944
H      -0.373982    2.036007    0.772356
H      -0.364954    1.993111   -1.037951
H       1.967146    1.068987    0.847594
H      -0.418382   -0.499847    0.873956
H       1.144490   -0.418118   -3.268843
H       0.197203    0.997042   -2.654740
H       2.829902   -0.162887   -1.416430
H       0.864197   -3.786753   -2.581287
H       2.173071   -2.538330   -2.288264
H       1.809749   -2.596803    0.152817
H       0.487365   -3.860683   -0.014094
