18

C      -0.052410    1.373048    0.184071
C       1.376150    1.918814    0.126219
C       2.204902    0.690796    0.516693
O       2.313996    0.540693    1.934131
C       1.525194   -0.562163    2.381146
C       1.392722   -1.490275    1.171580
C       1.355999   -0.495906    0.006588
O       0.040298    0.010142   -0.230917
H      -0.457052    1.440333    1.205140
H      -0.747270    1.883711   -0.489350
H       1.629545    2.225609   -0.894312
H       1.554914    2.758239    0.800763
H       3.216846    0.716662    0.099737
H       2.037026   -1.018834    3.233544
H       0.536998   -0.218555    2.722096
H       2.275593   -2.132261    1.080978
H       0.500901   -2.119354    1.194327
H       1.726187   -0.929497   -0.928031
