16

C      -0.711477    1.471316   -0.478738
O      -0.667641    0.075030   -0.667876
C      -0.685584   -0.646684    0.547438
C      -0.735005   -2.105465    0.224289
C      -0.419482   -3.240178    0.946421
C      -0.741978   -4.309744    0.083521
N      -1.213893   -3.883539   -1.085055
N      -1.209442   -2.542335   -0.966688
H      -0.701180    1.933716   -1.468096
H      -1.624505    1.781301    0.052787
H       0.158786    1.829998    0.091668
H       0.204967   -0.422356    1.156341
H      -1.564269   -0.349637    1.147202
H      -0.017202   -3.285785    1.945667
H      -0.643386   -5.369920    0.265722
H      -1.473911   -1.958659   -1.742367
