16

C       0.076853   -1.200126   -0.135368
C       0.022248   -0.000233   -0.127937
C      -0.022105    1.455448   -0.101852
C       1.357146    2.062591    0.156267
O       2.272118    1.873090   -0.939090
C       2.448695    3.284927   -1.133482
C       1.500066    3.616976    0.051436
C       0.309908    4.390087   -0.252652
N      -0.640009    5.000002   -0.503197
H       0.118261   -2.261015   -0.152378
H      -0.415982    1.843339   -1.048450
H      -0.705547    1.798838    0.686190
H       1.771325    1.661380    1.088338
H       3.486864    3.600662   -0.985769
H       2.099265    3.619649   -2.115573
H       2.006889    4.058964    0.911002
