18

C      -0.073005    1.555432   -0.007245
C      -0.047341    0.026975   -0.012626
C      -1.430989   -0.579013    0.222356
C       0.770415   -0.618966   -1.181063
N       1.728668   -1.121921   -0.176690
C       2.881253   -1.872316   -0.323548
O       3.595707   -2.230675    0.574937
C       1.036134   -0.561614    0.922151
O       1.244083   -0.568515    2.096685
H       0.921562    1.976143   -0.185433
H      -0.748495    1.933879   -0.781734
H      -0.423833    1.923464    0.961316
H      -2.135220   -0.245862   -0.547329
H      -1.400048   -1.672961    0.207213
H      -1.818382   -0.268279    1.197040
H       0.252688   -1.413678   -1.724909
H       1.211197    0.090984   -1.886090
H       3.069335   -2.106916   -1.391494
