16

C       0.001563    1.487327    0.003903
O       1.461253    1.534073   -0.018331
C       1.511874    0.135949    0.140805
C       2.567974   -0.858752   -0.290563
O       2.194865   -1.706778    0.831808
C       1.435794   -0.651335    1.481245
C      -0.096612   -0.815008    1.328900
C      -0.011537   -0.064253   -0.031483
H      -0.403045    1.943378    0.915450
H      -0.416744    1.989611   -0.873505
H       2.444746   -1.361461   -1.256277
H       3.598930   -0.490796   -0.193541
H       1.872403   -0.349466    2.437122
H      -0.411541   -1.858352    1.257657
H      -0.692147   -0.312100    2.097178
H      -0.459238   -0.514273   -0.917351
