22

C       0.747437    0.687628   -0.639190
C       0.118804   -0.709146   -0.518644
C      -1.297692   -0.712556    0.036561
C      -2.349280   -0.043614   -0.850769
O      -2.318406    1.366864   -0.733897
C      -1.836451   -1.769978    0.925931
C      -0.807949   -2.348590    1.895264
C      -0.547131   -0.890065    2.345211
N      -1.627147   -0.348756    1.443023
H       1.742867    0.620988   -1.089122
H       0.128680    1.350599   -1.246311
H       0.855331    1.157077    0.344344
H       0.076533   -1.176609   -1.510838
H       0.772525   -1.351751    0.077884
H      -2.165571   -0.279034   -1.904264
H      -3.345683   -0.432744   -0.590423
H      -2.331828    1.532352    0.218411
H      -2.833966   -2.176687    0.782004
H      -1.268057   -2.951947    2.679655
H       0.020327   -2.915622    1.460962
H      -0.818788   -0.698184    3.384859
H       0.445798   -0.471344    2.159426
