15

O      -0.070282    1.373189    0.054136
C       0.054508   -0.000845    0.035360
C       0.529539   -0.958104   -1.085504
N       0.079054   -1.921881    0.021951
C       0.798797   -0.966790    0.991087
C      -1.146152   -0.968570    0.168424
C      -1.914247   -1.053627    1.390413
C      -2.587318   -1.113925    2.384828
H       0.808529    1.767253    0.021980
H      -0.066415   -1.027093   -1.999010
H       1.600490   -1.019633   -1.291717
H       1.887444   -1.026261    0.915424
H       0.453293   -1.045718    2.022085
H      -1.799995   -1.029256   -0.706477
H      -3.177463   -1.167902    3.266289
