19

C       0.373000    1.510468   -0.142634
C      -0.017942    0.031717    0.005428
C       0.383053   -0.842553   -1.207961
C       1.729765   -1.444720   -0.834064
O       2.863557   -0.523599   -1.018952
C       3.041081   -0.397547    0.345800
N       3.886431    0.253881    1.004086
C       1.857672   -1.297086    0.699184
N       0.614292   -0.681987    1.134895
H       1.434980    1.640312   -0.362590
H      -0.199962    1.973174   -0.953965
H       0.144153    2.060651    0.776692
H      -1.104459   -0.010291    0.149000
H      -0.335210   -1.657864   -1.340355
H       0.431965   -0.279069   -2.142843
H       1.955941   -2.406239   -1.295733
H       4.527748    0.763354    0.392724
H       2.114912   -2.171177    1.301502
H       0.737060   -0.095785    1.952996
