15

O      -0.444201    0.729062    0.915987
C       0.081917    1.032516   -0.120622
C       1.406297    1.785261   -0.218708
C       1.353602    2.874207   -1.258577
C       1.412574    4.229897   -0.917620
N       1.355882    5.200234   -1.828308
C       1.226569    4.810759   -3.097916
C       1.154391    3.464685   -3.446708
N       1.220128    2.494112   -2.535152
H      -0.361507    0.774256   -1.106074
H       1.669836    2.165988    0.770161
H       2.160033    1.046937   -0.523441
H       1.513590    4.534133    0.121491
H       1.179580    5.589167   -3.854566
H       1.045246    3.160776   -4.484645
