15

C       0.036931   -1.171672    0.434292
C      -0.003678    0.001528    0.180008
C      -0.021011    1.430633   -0.147296
N      -0.809809    2.231742    0.814599
C       0.138575    2.934218    1.699280
C       1.468518    2.858472    0.994359
C       1.395506    2.029355   -0.050245
C       2.442187    1.670833   -0.936339
N       3.270992    1.371207   -1.688311
H       0.066191   -2.208951    0.661256
H      -0.433887    1.549112   -1.155951
H      -1.338941    2.918260    0.291548
H      -0.189420    3.962594    1.886215
H       0.204154    2.442921    2.681764
H       2.362034    3.371038    1.327860
