15

C      -0.109469    1.418813   -0.040845
N      -0.040841   -0.022824    0.015266
N      -0.135010   -0.746344   -1.144659
C      -0.032985   -1.978924   -0.687825
O      -0.076691   -3.035874   -1.511493
N       0.117653   -2.109586    0.655145
C       0.108378   -0.847608    1.071909
C       0.242272   -0.407753    2.491725
H      -0.017441    1.821964    0.968297
H       0.700988    1.811039   -0.661405
H      -1.064149    1.734710   -0.470436
H       0.016849   -3.817427   -0.953924
H       1.120988    0.228680    2.640752
H      -0.636547    0.151288    2.830287
H       0.348787   -1.293739    3.118164
