17

C       0.046446    1.377088    0.044495
C       1.515549    1.895595   -0.049591
C       2.145620    0.898099   -0.963290
O       3.372077    0.899148   -1.734114
C       2.729469   -0.414735   -2.006407
C       2.239369   -0.603765   -0.551283
C       0.748606   -0.720385   -0.911330
O      -0.086298   -0.044576    0.026230
C       1.291517    0.162717   -2.055334
H      -0.430646    1.709871    0.969087
H      -0.515517    1.803586   -0.798939
H       1.513403    2.911677   -0.457329
H       2.013173    1.914185    0.925236
H       3.244921   -1.091975   -2.684478
H       2.794987   -0.999586    0.297512
H       0.292437   -1.690894   -1.111532
H       0.793811    0.618773   -2.910087
