17

N      -0.032884    1.367417   -0.139507
C      -0.013365    0.113434    0.025329
C      -1.303028   -0.671733    0.078788
C      -1.416577   -1.712768    1.201856
N      -0.571696   -2.879271    1.006254
C       0.789901   -2.887407    0.947899
O       1.439501   -3.909217    0.838650
C       1.467791   -1.516439    1.064782
O       1.169333   -0.585402    0.019147
H       0.924856    1.721678   -0.199120
H      -2.109710    0.058274    0.168536
H      -1.422842   -1.191558   -0.879973
H      -1.218171   -1.243666    2.175213
H      -2.448078   -2.070257    1.236839
H      -1.001578   -3.789200    0.934361
H       1.251154   -1.066611    2.044065
H       2.538909   -1.700980    0.994475
