20

C       0.000037    1.631889    0.017612
C       0.021703    0.094918    0.009644
N       0.781849   -0.459153   -1.120824
C       1.942480   -1.244549   -0.696123
C       1.800046   -1.221433    0.797651
C       0.750071   -0.505881    1.198974
C       0.282600   -0.272518    2.600155
C       0.377568   -0.437288   -2.412510
O       0.973150   -0.962976   -3.332699
H       1.017931    2.029557    0.069876
H      -0.475223    2.018533   -0.888491
H      -0.566944    2.005810    0.876025
H      -1.018878   -0.264811   -0.021399
H       1.900778   -2.253994   -1.125520
H       2.882480   -0.797117   -1.048778
H       2.488793   -1.744450    1.450295
H       0.906302   -0.810125    3.318604
H       0.305776    0.791660    2.863669
H      -0.754420   -0.605978    2.733211
H      -0.572509    0.118487   -2.548418
