17

O       0.034517    1.406703    0.278238
C      -0.114798    0.044405    0.531907
C      -1.285735   -0.532410   -0.257944
O      -1.945799    0.217063   -0.958001
C      -1.579291   -1.965412   -0.135124
C      -2.520158   -2.676361   -1.104179
C      -2.905510   -2.616099    0.319741
O      -2.236553   -3.592043    1.102483
C      -0.943571   -3.006755    0.786203
H      -0.687095    1.623735   -0.335719
H       0.795872   -0.518218    0.263193
H      -0.289492   -0.147454    1.604183
H      -3.033919   -1.985342   -1.763606
H      -2.211840   -3.624159   -1.535680
H      -3.800988   -2.155689    0.721135
H      -0.260512   -3.730231    0.327643
H      -0.490069   -2.588603    1.690760
