21

C       0.072067    1.540138   -0.029819
C       0.007139    0.011719   -0.018526
O       0.807471   -0.517253    1.030009
C      -1.444349   -0.535115    0.059910
C      -2.329240   -0.057858   -1.111342
C      -1.444416   -1.996042    0.125986
C      -1.470742   -3.199471    0.134933
C      -1.468951   -4.655395    0.177933
O      -2.457665   -5.165725   -0.711467
H       1.117633    1.855940    0.012607
H      -0.379388    1.968222   -0.928706
H      -0.446733    1.960634    0.841467
H       0.464016   -0.379333   -0.935239
H       0.439744   -0.210081    1.866353
H      -1.880012   -0.143770    0.993701
H      -2.457573    1.027300   -1.094389
H      -1.884493   -0.342661   -2.069966
H      -3.317019   -0.520552   -1.051734
H      -0.465014   -5.021366   -0.092765
H      -1.658266   -4.986735    1.212365
H      -2.416034   -6.126234   -0.662366
