19

C       0.039361    1.532102    0.081512
C      -0.004225    0.033660   -0.019647
C      -0.074338   -0.623881   -1.176185
C      -0.069820   -2.139867   -1.251222
C       0.415889   -2.706102    0.100608
O      -0.252155   -2.093280    1.180915
C       0.046417   -0.717552    1.289717
C      -1.380405   -2.662645   -1.640756
C      -2.454164   -3.094000   -1.966324
H       0.935206    1.868303    0.619431
H       0.042641    1.999384   -0.906392
H      -0.823431    1.917187    0.639815
H      -0.144110   -0.084539   -2.116887
H       0.657650   -2.450329   -2.015768
H       0.210390   -3.776366    0.171721
H       1.504764   -2.549324    0.175501
H       1.040669   -0.571772    1.754599
H      -0.689904   -0.302147    1.988359
H      -3.405514   -3.472232   -2.247584
