23

C      -0.009164    1.571398    0.071098
C      -0.037076    0.036047    0.003759
C      -1.491221   -0.454498    0.082213
C       0.701055   -0.512351   -1.246847
C       2.140210   -0.002340   -1.356905
C       0.649600   -2.064872   -1.336093
O      -0.399108   -2.335463   -2.253077
C      -0.341710   -1.267816   -3.163318
O      -0.035653   -0.109301   -2.422718
H       1.000666    1.967586    0.205370
H      -0.426154    2.000128   -0.845680
H      -0.613408    1.924295    0.912703
H       0.509140   -0.356333    0.873936
H      -2.074917   -0.042757   -0.745829
H      -1.576741   -1.542795    0.035615
H      -1.948983   -0.120658    1.018667
H       2.722667   -0.282171   -0.471702
H       2.629046   -0.434139   -2.235147
H       2.168665    1.083805   -1.458181
H       1.604502   -2.463904   -1.710540
H       0.414445   -2.550973   -0.387407
H       0.435338   -1.451631   -3.929400
H      -1.319001   -1.152846   -3.641963
