21

C       0.067449    1.529022    0.212027
C      -0.119374    0.037580   -0.093365
C       0.670592   -0.473205   -1.284181
C       0.926936   -1.993876   -1.403354
O       2.348625   -1.779840   -1.604299
C       2.204137   -0.349173   -1.422531
C       2.051064    0.499361   -2.703016
C       1.310943   -0.273278   -3.753195
C       0.525189    0.316930   -2.615606
H       1.117790    1.763707    0.414637
H      -0.258167    2.160751   -0.619519
H      -0.512336    1.816603    1.094102
H       0.164999   -0.547195    0.790670
H      -1.185913   -0.168264   -0.263677
H       0.740129   -2.551787   -0.476403
H       0.461145   -2.523787   -2.242372
H       2.860480    0.047794   -0.643581
H       2.629766    1.386276   -2.932156
H       1.188688    0.246021   -4.698469
H       1.472691   -1.341066   -3.849546
H      -0.254436    1.047590   -2.797276
