17

C       0.051168    1.524492    0.245020
O       1.473486    1.439164   -0.133786
C       1.141291    0.263109   -0.897586
C       0.572060    0.594282   -2.311591
O      -0.690299   -0.102684   -2.343384
C      -0.672467   -0.875253   -1.172934
O       0.416782   -1.840948   -1.237334
C       1.691853   -1.151464   -0.973410
C      -0.116552    0.015523   -0.072784
H      -0.058488    1.809989    1.292761
H      -0.495355    2.220189   -0.398580
H       0.408213    1.665786   -2.452313
H       1.221004    0.223847   -3.112831
H      -1.602038   -1.432675   -1.082083
H       2.368043   -1.363742   -1.806893
H       2.128161   -1.505117   -0.033327
H       0.099266   -0.570849    0.821257
