24

C       0.029579    1.537785    0.068755
C      -0.008902    0.011779   -0.045721
C      -1.426316   -0.562864    0.054998
C      -1.464674   -2.090060   -0.059586
C      -2.876090   -2.646345    0.041943
O      -2.801728   -4.069434   -0.076098
C      -3.973787   -4.728734   -0.007166
N      -4.015558   -5.982402   -0.100157
C      -5.316042   -6.611551   -0.015740
H       1.052965    1.917997   -0.006651
H      -0.560131    2.009649   -0.725131
H      -0.380430    1.873617    1.027806
H       0.438248   -0.297331   -0.999475
H       0.616540   -0.432289    0.739622
H      -1.874492   -0.253733    1.009740
H      -2.052963   -0.118638   -0.731089
H      -1.030992   -2.409258   -1.014742
H      -0.852296   -2.544525    0.728288
H      -3.331152   -2.374897    1.005249
H      -3.511795   -2.238174   -0.756805
H      -4.854977   -4.081263    0.133348
H      -5.327999   -7.324003    0.817311
H      -6.150281   -5.903777    0.124669
H      -5.506820   -7.188537   -0.928095
