20

C       0.444585    1.197033    0.302032
C       0.215294   -0.277093    0.109857
C       0.654562   -1.166070   -1.098307
C      -0.107197   -2.124907   -0.140909
C       0.689482   -1.458691    1.014793
C      -1.196873   -1.002289    0.027276
C      -2.152251   -1.002933    1.226613
C      -1.980040   -0.693379   -1.171906
N      -2.636690   -0.435174   -2.088805
H       1.516069    1.423214    0.311916
H      -0.014829    1.772166   -0.508712
H       0.019511    1.546048    1.249259
H       0.198908   -0.955193   -2.067077
H       1.728872   -1.340686   -1.189739
H      -0.309514   -3.186039   -0.286430
H       1.765931   -1.644973    1.007800
H       0.296900   -1.526585    2.028899
H      -1.647442   -1.236338    2.164058
H      -2.630792   -0.024454    1.331559
H      -2.945725   -1.741065    1.076443
