16

O      -0.003586    1.434014    0.031880
C      -0.003482    0.032560    0.007941
C      -1.394510   -0.598687   -0.098208
N      -1.928027   -0.544165   -1.464634
C      -1.319115   -1.816340   -0.963758
C       0.107075   -1.937222   -1.426416
O       0.659231   -2.941439   -1.790979
C       0.755390   -0.545955   -1.222861
O       0.570354    0.295907   -2.355459
H       0.143384    1.705046   -0.887078
H       0.464873   -0.329273    0.932388
H      -2.084423   -0.543169    0.736978
H      -2.940201   -0.639659   -1.456627
H      -1.935943   -2.697047   -0.832623
H       1.830215   -0.637479   -1.063852
H      -0.381189    0.252641   -2.554165
