19

C      -0.131398    1.535619    0.045711
C       0.052452    0.019253    0.021618
C       1.014530   -0.525119   -1.094497
C       2.037393   -1.264614   -0.207560
C       3.098519   -2.139985   -0.801613
O       1.156563   -1.907955    0.793416
C       0.804643   -0.558966    1.239754
C       2.281302   -0.241683    0.930309
O       3.210565    0.303377    1.439766
H       0.830003    2.055176    0.126704
H      -0.621739    1.883669   -0.868650
H      -0.750157    1.847090    0.894026
H      -0.921654   -0.473472   -0.048516
H       0.518564   -1.216808   -1.780054
H       1.477907    0.274532   -1.681289
H       3.747913   -1.545121   -1.451120
H       3.713495   -2.590980   -0.018871
H       2.652826   -2.938131   -1.403763
H       0.359233   -0.511272    2.231784
