15

C       0.001019    1.308654   -0.196514
O      -0.042135   -0.111819   -0.115858
C      -1.294093   -0.627951    0.100650
O      -2.166158   -0.401312   -1.039709
C      -2.795289   -1.542655   -1.445175
O      -3.677638   -1.553891   -2.249471
C      -2.191903   -2.705772   -0.693400
O      -0.774740   -2.776567   -0.922525
C      -1.236994   -2.137405    0.258921
H       1.053252    1.583087   -0.282386
H      -0.546459    1.671455   -1.072433
H      -0.421097    1.768001    0.708752
H      -1.789022   -0.148260    0.960336
H      -2.730412   -3.639685   -0.585657
H      -0.966603   -2.588068    1.207863
