20

C      -0.240668    1.599379    0.087719
C      -0.005468    0.094587    0.074006
C       0.523565   -0.572452   -1.193228
C       1.914866   -0.192016   -1.489823
N       1.684201   -1.241283   -0.476150
C       1.242617   -0.545158    0.812049
C       2.288962    0.363251    1.461115
C       0.829497   -1.565823    1.767860
C       0.476109   -2.383728    2.574825
H       0.620889    2.162773   -0.281298
H      -1.096224    1.853276   -0.547645
H      -0.464630    1.952324    1.099980
H      -0.907152   -0.414085    0.420834
H      -0.087839   -1.123231   -1.901047
H       2.361261   -0.597475   -2.392766
H       2.303664    0.779921   -1.203208
H       2.589078    1.188821    0.812833
H       1.894262    0.787879    2.388304
H       3.177853   -0.224466    1.707626
H       0.169837   -3.116528    3.279673
