18

O      -0.043037    1.466055    0.105443
C      -0.017413    0.069369    0.294016
C      -1.367546   -0.546227   -0.089510
O      -1.710513   -0.153106   -1.415318
C      -1.418709   -2.060774    0.090130
C      -1.722992   -2.634174    1.467262
C      -2.757100   -2.720937    0.388387
C      -0.508097   -2.783546   -0.762279
N       0.220894   -3.321591   -1.483098
H      -0.467572    1.606172   -0.750905
H       0.780772   -0.410301   -0.298787
H       0.199981   -0.117260    1.350986
H      -2.142306   -0.101769    0.544907
H      -1.125654   -0.620175   -2.026571
H      -1.202033   -3.537687    1.759619
H      -1.863284   -1.914036    2.265980
H      -3.614012   -2.058388    0.429102
H      -2.948520   -3.686977   -0.062651
