11

O      -0.171489    1.253842    0.011825
C       0.043354   -0.055054    0.002683
N       1.178609   -0.683850   -0.006986
C       0.798200   -2.016759   -0.013382
C      -0.559012   -2.119544   -0.006795
O      -1.055434   -0.811926    0.003632
C      -1.466156   -3.184870   -0.008616
C      -2.236064   -4.111707   -0.010325
H       0.695841    1.679919    0.010232
H       1.520537   -2.816807   -0.022094
H      -2.914416   -4.928528   -0.011849
