18

C       0.532276    0.106158   -1.538144
C       0.104026    0.091065   -0.070573
O       0.106573    1.386271    0.510306
C      -1.275231   -0.551531    0.101044
N      -1.447323   -2.014087   -0.252530
C      -0.698130   -2.772713    0.746556
C      -2.050506   -2.275388    1.128931
C      -1.946365   -0.815423    1.473120
O      -2.408279   -0.122809    2.330786
H       1.523315    0.556915   -1.636341
H       0.559427   -0.907505   -1.949461
H      -0.174562    0.691024   -2.139459
H       0.848103   -0.462662    0.510946
H      -0.541876    1.928415    0.046863
H      -2.000611    0.014279   -0.501083
H      -0.623087   -3.831131    0.516776
H       0.185123   -2.349686    1.215820
H      -2.894999   -2.933693    1.295678
