22

C      -0.051691    1.392483   -0.216595
O      -0.028506    0.028814    0.123608
C      -1.282711   -0.598678   -0.036690
C      -1.148454   -2.066255    0.355260
C      -2.460848   -2.809993    0.222724
C      -2.896207   -3.397466   -1.102705
C      -2.548885   -4.310443    0.048826
C      -1.333271   -5.210755   -0.000906
H       0.955629    1.787791   -0.062627
H      -0.336699    1.548423   -1.269810
H      -0.755529    1.960917    0.412983
H      -2.042897   -0.101403    0.591924
H      -1.627141   -0.512751   -1.081677
H      -0.376221   -2.518792   -0.275031
H      -0.779815   -2.116985    1.387407
H      -3.261233   -2.379221    0.821385
H      -3.931582   -3.301909   -1.411571
H      -2.184519   -3.345341   -1.922118
H      -3.401500   -4.766463    0.546553
H      -0.504603   -4.752972   -0.548263
H      -0.972112   -5.453590    1.004959
H      -1.572861   -6.154413   -0.503562
