19

C       0.218772    1.380825   -0.256029
C      -0.003276   -0.083445   -0.037242
C      -1.365175   -0.785955    0.147001
C      -0.684195   -1.797678    1.135793
C       0.645091   -1.074061    0.896555
N       0.891585   -1.121043   -0.552378
C       2.132892   -0.824012   -1.124880
N       3.153539   -1.633555   -0.658052
O       2.300329    0.022765   -1.979399
H       1.266536    1.654060   -0.118369
H      -0.058958    1.666619   -1.275246
H      -0.393188    1.957948    0.444975
H      -2.100346   -0.150105    0.645662
H      -1.800171   -1.202611   -0.763897
H      -1.048227   -1.686455    2.159544
H      -0.704334   -2.853618    0.855473
H       1.478137   -0.933636    1.575965
H       2.898193   -2.517607   -0.246237
H       3.963507   -1.653778   -1.258586
