16

O      -0.102651    1.384052    0.409178
C      -0.011840    0.063023   -0.121328
C      -1.366216   -0.554879   -0.031476
C      -1.766332   -1.882775    0.041657
C      -3.200505   -1.882733    0.054137
C      -3.612405   -0.576631   -0.005431
N      -2.490476    0.214506   -0.069813
C      -0.905087   -3.002540    0.089700
C      -0.168795   -3.956473    0.132472
H       0.711312    1.848429    0.194357
H       0.330107    0.095052   -1.169250
H       0.705579   -0.558282    0.433012
H      -3.830797   -2.756028    0.105917
H      -4.599159   -0.143343    0.001892
H      -2.455230    1.219788   -0.047466
H       0.475357   -4.798960    0.170913
