19

C      -0.094629    1.558416   -0.061026
C       0.054387    0.062605    0.115643
N       1.247960   -0.727455   -0.269269
C       2.447652    0.095720    0.112417
C       2.055678    0.055283    1.613873
O       1.869361    1.247294    2.351969
C       0.773765   -0.655098    1.195366
C       0.197459   -1.826465    1.936692
H       0.676671    2.127497    0.455555
H      -0.086851    1.819832   -1.125617
H      -1.060301    1.872553    0.348632
H      -0.831668   -0.481929   -0.209983
H       3.363185   -0.451183   -0.123647
H       2.490735    1.084422   -0.352731
H       2.707724   -0.636622    2.163460
H       2.729707    1.550497    2.659139
H      -0.295354   -1.491587    2.857150
H      -0.544878   -2.349264    1.327021
H       0.975385   -2.546496    2.213913
