17

O      -0.138393    1.342189    0.033667
N       0.013440   -0.056669    0.043010
C      -1.115284   -0.649963    0.043878
C      -1.207158   -2.138945   -0.025651
C      -2.035542   -2.880897    1.009103
C      -2.668751   -2.476698   -0.292713
C      -3.433085   -1.160107   -0.308043
N      -3.435787   -0.443742    0.980527
C      -2.476813   -0.039258   -0.085069
H       0.775620    1.642625   -0.004477
H      -0.388224   -2.666963   -0.498322
H      -1.790420   -3.929147    1.140091
H      -2.347351   -2.356249    1.902486
H      -2.948515   -3.230090   -1.018769
H      -4.285751   -1.057060   -0.969768
H      -4.197252    0.231221    0.993902
H      -2.568348    0.942579   -0.530966
