16

N       0.143100   -1.120470   -0.293324
C       0.056280    0.017425   -0.109099
C      -0.000156    1.461478    0.086851
C      -0.438778    2.291423   -1.167009
C       0.950502    2.995846   -1.198253
C       1.378229    2.251499    0.092006
N       1.255138    3.019038    1.329436
C       0.084450    2.626103    1.950809
N      -0.689296    1.811531    1.337170
H      -0.679548    1.693343   -2.047012
H      -1.285462    2.937901   -0.932224
H       1.555946    2.726959   -2.066794
H       0.935007    4.082753   -1.099933
H       2.310066    1.684869    0.047742
H       2.072574    3.206881    1.890358
H      -0.161445    3.049448    2.920519
