17

O       0.417671    1.252425   -0.293176
C       0.088226   -0.067164   -0.078418
C       0.398073   -0.784486    1.265296
C      -0.580269   -1.816767    0.651298
C      -1.376426   -0.627677    0.073908
O       0.143782   -2.327270   -0.500254
C       0.668414   -1.121235   -1.060489
C       0.222021   -0.903084   -2.488835
O       0.245832    0.189515   -3.009143
H       0.380242    1.402087   -1.250227
H       1.423537   -1.107542    1.457942
H      -0.018708   -0.253754    2.122559
H      -1.019884   -2.644630    1.200451
H      -1.939944   -0.075932    0.826913
H      -1.979957   -0.806321   -0.819295
H       1.769063   -1.118771   -1.044133
H      -0.136017   -1.803167   -3.031070
