20

N      -0.107621   -1.218268    0.278602
C      -0.083649   -0.064612    0.187578
C      -0.051592    1.365731    0.069560
C       0.517660    2.201614    1.207503
C       1.284503    2.094497   -0.076788
C       2.580766    1.337766   -0.152717
C       3.129678    0.911583   -1.545652
C       4.557117    1.256585   -1.042226
C       3.912034    2.111628    0.081912
H      -0.897408    1.778853   -0.469296
H      -0.001772    3.123338    1.442744
H       0.895786    1.660762    2.067794
H       1.231101    2.959306   -0.734254
H       2.537237    0.465183    0.507403
H       2.927743   -0.109200   -1.876426
H       2.801433    1.604008   -2.328205
H       5.065908    0.376925   -0.638372
H       5.233117    1.759640   -1.736826
H       3.817338    3.161410   -0.215636
H       4.352882    2.073459    1.080897
