19

C       0.107449    1.469540    0.091722
C       1.384712    0.699548    0.190335
O       1.491976    0.036851    1.452949
C       0.308952   -0.764688    1.145678
C       0.110847   -0.022504   -0.177571
C       0.633846   -2.238922    1.051377
C       1.875910   -2.697814    0.253473
O       2.403196   -3.398402    1.397499
C       1.364494   -2.882121    2.253137
H      -0.349902    1.867736    0.993521
H       0.000959    2.088950   -0.793681
H       2.299525    0.914324   -0.349616
H      -0.473366   -0.603997    1.900982
H      -0.215287   -0.465006   -1.109406
H      -0.275395   -2.778743    0.768201
H       1.692105   -3.371031   -0.591981
H       2.538875   -1.885516   -0.065701
H       1.755947   -2.157205    2.977661
H       0.831997   -3.679430    2.784409
