19

C      -0.427598    1.123706    0.235437
O      -0.153872   -0.257967    0.089999
C       0.590406   -0.573129   -1.026834
C       0.268459   -0.405552   -2.537471
N       1.622680   -1.128035   -2.544176
C       2.022453   -0.135477   -1.441477
C       1.015768   -2.002193   -1.413483
C       1.938605   -2.867295   -0.579492
H       0.495934    1.713613    0.321243
H      -1.013047    1.512452   -0.609689
H      -1.008666    1.241034    1.152314
H      -0.546336   -0.998601   -2.960746
H       0.315851    0.593573   -2.976672
H       2.162648    0.880807   -1.817628
H       2.874746   -0.448372   -0.839431
H       0.202338   -2.617286   -1.814261
H       2.737136   -2.315222   -0.080217
H       1.354371   -3.376099    0.194104
H       2.399037   -3.634376   -1.210593
