12

O      -0.061766   -0.029417   -0.000152
C      -0.023337    1.180130    0.008097
C       1.224100    1.948893   -0.000252
C       2.512504    1.440375   -0.018435
N       3.338587    2.503554   -0.020095
N       2.707114    3.689596   -0.004261
C       1.414399    3.361093    0.008142
C       0.402147    4.361886    0.026965
N      -0.454921    5.138558    0.042337
H      -0.948149    1.792328    0.023283
H       2.864252    0.421581   -0.029875
H       4.346600    2.500090   -0.031596
