18

C      -0.442091    1.329951    0.138228
N       0.353290    0.129831   -0.088116
C       0.954223   -0.459663    1.041735
C       0.219533   -0.856680    2.360002
C       0.982199   -1.872804    1.594353
C       0.547223   -3.187072    1.042578
O       2.388836   -1.730269    1.962824
C       2.434130   -0.468263    1.369411
O       3.390267    0.214856    1.207594
H       0.195341    2.114265    0.556959
H      -0.826488    1.688787   -0.820206
H      -1.293855    1.184625    0.823265
H      -0.119799   -0.544192   -0.674378
H       0.584333   -0.521045    3.325277
H      -0.861304   -0.876439    2.248287
H      -0.483477   -3.123701    0.680653
H       1.194919   -3.494915    0.216490
H       0.584304   -3.961706    1.815350
