18

C      -0.060557    1.468517    0.034775
C       1.315544    0.878870    0.069287
O       1.936789    0.943111    1.314404
C       2.776693   -0.152383    1.642900
C       2.156431   -1.543193    1.379798
C       0.687727   -1.624517    1.722632
C      -0.235105   -0.940056    1.045174
C       0.118353   -0.036773   -0.084722
H      -0.428040    1.851955    0.979949
H      -0.370958    2.023624   -0.843207
H       1.976938    1.023458   -0.786267
H       3.734595   -0.081067    1.103505
H       2.986780   -0.025426    2.709482
H       2.293013   -1.798007    0.322604
H       2.735305   -2.277934    1.948801
H       0.388261   -2.263359    2.549342
H      -1.287956   -1.036384    1.303190
H      -0.055908   -0.440982   -1.081555
