15

O      -0.101875    1.378650   -0.055917
C       0.050323    0.014272   -0.066817
C       0.877851   -0.800477   -1.058729
C      -0.063273   -1.996602   -0.719984
O       0.517748   -2.799081    0.316370
C       0.521135   -2.064609    1.477978
O       1.042428   -2.447129    2.484542
C      -0.245470   -0.808119    1.216443
C      -1.051641   -1.001420   -0.046078
H       0.667289    1.774694    0.369866
H       0.711133   -0.438103   -2.076430
H       1.945821   -0.955919   -0.878651
H      -0.395688   -2.649265   -1.522043
H      -0.638351   -0.245233    2.051552
H      -2.126021   -0.923451   -0.137448
