22

C      -0.119780    1.478193   -0.142626
C       0.054004   -0.039991   -0.049533
C       0.704213   -0.489115    1.263593
C       0.859197   -2.018979    1.357534
C       1.529427   -2.465819    2.628268
C       2.992125   -2.130228    2.876833
O       3.787417   -3.280685    3.089139
N       0.808809   -3.126888    3.451564
O       1.535276   -3.464286    4.623275
H       0.845296    1.992538   -0.074494
H      -0.585321    1.768823   -1.089448
H      -0.752323    1.854491    0.668892
H      -0.923076   -0.529639   -0.153322
H       0.661457   -0.393806   -0.893026
H       1.684971   -0.005013    1.364184
H       0.101712   -0.140720    2.112193
H      -0.124050   -2.494966    1.295192
H       1.452547   -2.374448    0.503684
H       3.407972   -1.622065    2.002525
H       3.053057   -1.429617    3.725441
H       3.390940   -3.734111    3.843473
H       0.893869   -3.984328    5.117610
