15

C       0.066588   -1.160389    0.024358
C       0.051313    0.040073   -0.002518
C      -0.024930    1.479815   -0.017083
C      -0.650639    2.168758    1.257971
O      -0.113928    3.486479    1.176571
C       0.735071    3.442666    0.002358
O       1.264713    2.138871    0.024040
C      -0.200956    3.413532   -1.201972
C      -0.693476    2.175893   -1.206100
H       0.093518   -2.222241    0.040238
H      -1.744101    2.182952    1.233219
H      -0.295979    1.672417    2.165942
H       1.506097    4.205098    0.082308
H      -0.488566    4.266005   -1.800536
H      -1.483155    1.739839   -1.800354
