18

C      -0.224581    1.441550    0.034193
C       0.399733    0.084859   -0.200976
C       1.812284   -0.260245    0.156754
O       2.232420    0.428739    1.348627
C       1.226329   -0.283853    2.126249
C       0.672409   -0.955550    0.872761
C       1.818385   -1.273117    3.128776
N       3.167397   -1.223883    3.230013
O       1.090908   -2.016998    3.758442
H       0.248459    1.953252    0.875540
H      -0.099663    2.077544   -0.848290
H      -1.296738    1.355826    0.238132
H       0.096187   -0.400753   -1.127520
H       2.587308   -0.601458   -0.519814
H       0.561588    0.398304    2.668129
H       0.317683   -1.975791    0.835572
H       3.682173   -0.581274    2.651382
H       3.638125   -1.837383    3.873321
