18

C      -0.043795    1.535602   -0.004003
C       0.044111    0.031161    0.038716
C      -0.808854   -0.781996    0.973596
O      -1.501025   -1.885742    0.471728
C       0.689978   -0.810812    1.135471
C       1.416619   -1.969168    0.453920
N       1.172600   -1.747192   -0.958921
C       0.388719   -0.667580   -1.263989
O       0.064521   -0.307562   -2.374708
H       0.928680    1.983884   -0.232579
H      -0.742600    1.839499   -0.788845
H      -0.389901    1.942538    0.950617
H      -1.359115   -0.197249    1.711792
H      -1.612432   -2.520318    1.188063
H       1.142775   -0.363348    2.012746
H       2.488705   -1.947916    0.684705
H       1.021887   -2.941775    0.778588
H       1.387344   -2.428800   -1.668748
