17

O       2.320267    0.765845   -1.923718
C       2.095053    1.851315   -1.482059
O       1.433943    2.037926   -0.317842
C       1.184228    3.378376    0.076810
C      -0.034732    3.993543   -0.598204
C      -1.277469    3.291134   -0.295908
C      -2.298049    2.711559   -0.041680
C       1.469692    3.656533    1.516357
C       2.369532    4.234851    0.442975
H       2.405679    2.800304   -1.957485
H      -0.112082    5.039941   -0.279371
H       0.121929    4.018341   -1.684890
H      -3.198478    2.193744    0.179253
H       0.795327    4.318202    2.047712
H       1.857612    2.831378    2.101256
H       3.355925    3.798983    0.333684
H       2.320254    5.297751    0.232929
