15

O      -0.078846   -0.043097   -0.118217
C      -0.035051    1.139583    0.010881
O       1.129043    1.830679   -0.131038
C       1.081800    3.232792   -0.033362
C       0.845550    3.889291    1.360697
O       2.045850    4.667314    1.227441
C       2.477437    3.882760    0.098659
C       0.235499    3.871192   -1.120313
O      -0.468922    3.257168   -1.874551
H      -0.892250    1.778072    0.283128
H      -0.043837    4.515245    1.489086
H       0.903604    3.150421    2.170462
H       3.239568    3.139861    0.360488
H       2.827492    4.505294   -0.730873
H       0.316055    4.979760   -1.149485
