16

C       0.052486    1.440522    0.001659
N       0.140647   -0.007371   -0.057041
C       0.624289   -0.645649    0.920804
O       1.101098   -0.101029    2.093769
C       1.566806   -1.143179    2.958910
C       1.325382   -2.413825    2.187937
C       1.657686   -3.743668    2.700871
O       2.154976   -3.928482    3.789935
C       0.776428   -2.099866    1.005222
H       0.606049    1.863281   -0.844948
H      -0.994581    1.736961   -0.131479
H       0.430965    1.882734    0.929234
H       2.627148   -0.983402    3.187052
H       1.011017   -1.110940    3.903346
H       1.421098   -4.585994    2.017100
H       0.475266   -2.763828    0.207452
