23

C      -0.251822    1.515345   -0.047052
C       0.092106    0.016387    0.016818
C       0.791460   -0.485250   -1.213078
C       2.038492   -0.964949   -1.293676
C       2.427857   -1.351433   -2.703125
C       1.147367   -1.123587   -3.517700
C       1.280122   -0.652067   -4.945977
C      -0.051657   -1.945208   -3.115469
C       0.123276   -0.543972   -2.552940
H       0.654405    2.118191   -0.161952
H      -0.911017    1.740402   -0.891579
H      -0.761709    1.836714    0.866439
H       0.721307   -0.174138    0.893487
H      -0.836609   -0.551817    0.166392
H       2.707467   -1.089631   -0.448408
H       3.248706   -0.722331   -3.078303
H       2.784274   -2.388006   -2.771894
H       1.774262   -1.406827   -5.569953
H       0.301158   -0.447853   -5.391689
H       1.874028    0.267439   -5.007713
H      -0.818629   -2.089216   -3.870817
H       0.076806   -2.781043   -2.434348
H      -0.577809    0.227810   -2.854670
