20

C       0.031679    1.554656   -0.021850
C      -0.014888    0.026088    0.015917
O       0.723009   -0.492940    1.123575
C      -1.434492   -0.503440   -0.003031
C      -2.579321   -0.200631   -0.968986
N      -3.269757   -1.185712   -0.035305
C      -1.941215   -1.981959    0.088189
C      -2.045304   -1.990736    1.615312
C      -2.483474   -0.591871    1.164883
H       1.068419    1.900664   -0.000348
H      -0.447227    1.943933   -0.925738
H      -0.493310    1.981114    0.842170
H       0.507631   -0.365995   -0.866614
H       0.387860   -0.066126    1.919967
H      -3.023403    0.800802   -0.952133
H      -2.495189   -0.563589   -1.999545
H      -1.725090   -2.797242   -0.605235
H      -2.838398   -2.618849    2.029877
H      -1.111662   -2.075086    2.170598
H      -2.914907    0.230248    1.741092
