14

N      -0.113551    1.315884    0.015965
C      -0.047232   -0.055184    0.046497
N      -1.088857   -0.861522   -0.142049
N      -0.516884   -2.055121    0.054639
C      -1.240210   -3.315078   -0.051465
C      -1.617134   -3.648804   -1.420349
C      -1.936666   -3.943827   -2.538668
N       0.770062   -2.001093    0.338048
N       1.095919   -0.731477    0.339819
H       0.778764    1.757124   -0.149736
H      -0.858549    1.687352   -0.553757
H      -0.572652   -4.072692    0.367391
H      -2.128131   -3.247885    0.585354
H      -2.216552   -4.200272   -3.530770
