20

C       0.063974    1.020714   -0.426530
O      -0.080671   -0.267765    0.145706
C       0.682594   -0.462680    1.326941
C       0.291932   -1.819063    1.910846
C       1.200461   -2.772568    1.124663
O       2.396282   -2.018729    0.852162
C       2.153538   -0.679671    0.993494
N       3.011684    0.233472    0.849480
C       4.372630   -0.138802    0.485070
H       1.104669    1.237151   -0.692941
H      -0.557924    1.035791   -1.324615
H      -0.285857    1.802071    0.265416
H       0.555911    0.381412    2.015133
H       0.534404   -1.850195    2.977091
H      -0.770610   -2.026801    1.778183
H       1.489445   -3.669214    1.677417
H       0.747504   -3.068439    0.172464
H       4.475775   -0.176436   -0.606980
H       5.060834    0.627819    0.851888
H       4.676997   -1.114949    0.881019
