20

C       0.090719    1.565260    0.005063
C       0.021667    0.041253   -0.026965
O      -1.370434   -0.292976    0.027231
C       0.651034   -0.514407   -1.326590
C       0.784265   -2.016339   -1.307041
C       1.025711   -2.687421   -0.178247
C       1.163410   -1.977342    1.118076
N       2.118994   -0.831207    1.154425
C       0.678388   -0.569314    1.204173
H       1.131596    1.898128    0.042752
H      -0.384697    1.989069   -0.884387
H      -0.434181    1.948856    0.885025
H      -1.428745   -1.253206   -0.044938
H       0.024298   -0.191238   -2.164024
H       1.639430   -0.062204   -1.468530
H       0.697435   -2.548554   -2.250194
H       1.125810   -3.768814   -0.179200
H       1.100831   -2.586491    2.015326
H       2.518389   -0.753144    2.086582
H       0.237439   -0.243456    2.144210
