16

C      -0.235277    1.554097   -0.029560
C       0.102777    0.053957    0.030958
C       0.876564   -0.419157   -1.152246
C       2.127550   -0.922141   -1.330901
C       2.209900   -1.150244   -2.734199
C       3.370992   -1.700102   -3.476935
O       3.413565   -1.881864   -4.665923
N       1.094187   -0.809208   -3.348518
O       0.258431   -0.350552   -2.353175
H       0.674860    2.159994   -0.061221
H      -0.826352    1.783309   -0.919759
H      -0.812481    1.847973    0.851192
H       0.687718   -0.169826    0.927886
H      -0.824194   -0.527632    0.102480
H       2.879867   -1.106600   -0.581774
H       4.234915   -1.940794   -2.818605
