14

O       0.110950    1.365218    0.106719
C       0.059165   -0.039342    0.026961
C      -1.386097   -0.536972   -0.074823
C      -1.541342   -2.077277   -0.034502
O      -2.382160   -2.319314    1.124390
C      -2.610554   -1.101498    1.661607
N      -2.139743   -0.063391    1.108414
H      -0.537154    1.614801    0.778014
H       0.624998   -0.334995   -0.864135
H       0.535263   -0.519644    0.899753
H      -1.837568   -0.099415   -0.972017
H      -2.042171   -2.494996   -0.910276
H      -0.593109   -2.602634    0.121596
H      -3.210527   -1.117586    2.564986
