17

C      -0.411422    1.350378    0.245830
C       0.454423    0.142385   -0.028439
O       1.377484   -0.184469    0.680241
C       0.118468   -0.715992   -1.256330
C       1.360278   -1.171104   -1.996598
C      -0.963931   -1.793208   -0.974419
C      -1.804765   -0.976402   -1.951632
O      -2.891028   -1.015229   -2.428784
O      -0.829253   -0.032071   -2.161990
H      -0.352883    2.051715   -0.592579
H      -1.466374    1.067016    0.330045
H      -0.079168    1.829072    1.167126
H       2.030294   -1.677841   -1.299285
H       1.096273   -1.849174   -2.812363
H       1.889750   -0.311865   -2.418035
H      -0.718298   -2.801852   -1.310063
H      -1.364730   -1.834292    0.040084
