16

O       0.029765   -0.019915    0.141294
C       0.008996    1.184517    0.073900
C      -1.183904    2.174307    0.096869
N      -0.635839    3.536353   -0.013285
C       0.624554    3.351664   -0.094774
N       1.707825    4.181075   -0.255200
C       2.932138    3.440843    0.089347
C       2.531288    1.956405   -0.154740
N       1.090291    2.039689   -0.040261
H      -1.865072    1.946192   -0.731492
H      -1.755772    2.043997    1.023036
H       1.610364    5.141183    0.036406
H       3.768540    3.747253   -0.543118
H       3.218488    3.592352    1.138843
H       2.829678    1.616292   -1.152798
H       2.962194    1.278630    0.585234
