16

C       0.113933    1.482963    0.247370
C      -0.191865   -0.003324    0.007800
O      -1.580194   -0.220926   -0.166114
C       0.591417   -0.541533   -1.158244
N       0.002502   -0.878911   -2.304863
N       0.999785   -1.264440   -3.085103
N       2.220069   -1.218285   -2.542937
C       1.976128   -0.757014   -1.323430
O       2.932338   -0.537480   -0.402375
H       1.179002    1.633088    0.451097
H      -0.161270    2.074041   -0.631904
H      -0.464057    1.840858    1.103372
H       0.103326   -0.561573    0.906911
H      -1.749598   -0.263895   -1.114705
H       0.848387   -1.604996   -4.019154
H       3.781692   -0.777994   -0.792750
