20

C       0.024717    1.541111    0.295284
C      -0.022190    0.080692   -0.099689
C       0.663354   -0.286710   -1.429118
C      -0.254031   -1.375526   -2.067589
N      -1.235669   -1.796505   -1.057811
C      -0.714947   -2.698473    0.024905
C      -0.750215   -1.534503    1.031857
O       0.466191   -0.766081    0.998739
C      -1.375502   -0.678980   -0.085875
H       1.060440    1.861217    0.449943
H      -0.414393    2.168382   -0.487839
H      -0.523082    1.709063    1.227032
H       0.763405    0.584098   -2.084128
H       1.668980   -0.657743   -1.215027
H      -0.792193   -0.953995   -2.924748
H       0.297699   -2.246156   -2.432971
H      -1.420672   -3.510565    0.232231
H       0.283118   -3.117189   -0.144577
H      -1.126149   -1.686902    2.044948
H      -2.321312   -0.135724   -0.074013
