20

O      -0.170999    1.457893    0.092649
C      -0.021170    0.053595    0.228620
C      -1.338185   -0.595517   -0.191158
C      -1.302870   -2.093855   -0.114287
C      -0.599714   -3.097083   -1.019372
N      -1.484940   -4.193605   -0.461328
C      -0.995579   -4.265974    0.973891
C      -1.554071   -2.873299    1.203039
C      -2.438803   -3.068244    0.005411
H       0.657424    1.875904    0.344471
H       0.797503   -0.324453   -0.405087
H       0.214649   -0.228355    1.267029
H      -2.138013   -0.201796    0.447655
H      -1.571126   -0.274832   -1.214305
H      -0.839768   -2.940623   -2.075417
H       0.476077   -3.281809   -0.911170
H      -1.554868   -5.039663    1.506872
H       0.080092   -4.450677    1.079647
H      -1.779755   -2.351499    2.125363
H      -3.503837   -3.021739   -0.174031
