14

O      -0.864934    0.970101    0.530917
C       0.194412    0.870572   -0.024921
C       1.256127    1.971231   -0.026840
N       2.579130    1.385499    0.227193
C       3.320294    1.744680   -0.735652
O       2.826658    2.524923   -1.722279
C       1.411523    2.703307   -1.415342
C       0.597018    2.175135   -2.499304
C      -0.100203    1.744632   -3.377535
H       0.497192   -0.046792   -0.572154
H       0.991655    2.681682    0.760728
H       4.366268    1.484638   -0.854327
H       1.241139    3.777804   -1.309575
H      -0.717029    1.363920   -4.154673
