16

C      -0.591301    1.179859    0.234951
C       0.266749   -0.051559    0.047027
C       0.913848   -0.298221   -1.334479
C       2.258252   -0.250484   -0.556891
O       1.577699    0.088906    0.669409
C       2.995233   -1.502610   -0.471235
C       3.606701   -2.543006   -0.403414
C       4.293089   -3.720662   -0.331567
N       4.876331   -4.723803   -0.274495
H      -0.099312    2.065690   -0.178393
H      -1.557485    1.049579   -0.264634
H      -0.778450    1.354313    1.298890
H      -0.240615   -0.938845    0.446808
H       0.681599   -1.244145   -1.822013
H       0.795328    0.523244   -2.042667
H       2.944951    0.548183   -0.864148
