25

C       0.158263    1.484586   -0.382416
C       0.055852   -0.000513   -0.091597
C      -1.280268   -0.606055   -0.482367
C       1.287599   -0.856625   -0.262789
C       0.750700   -0.587664    1.128122
C       1.502086    0.221107    2.169168
C       2.925925    0.641805    1.847989
C       0.687930    1.148148    3.051240
C       1.231680   -0.138991    3.615414
H       1.128190    1.899157   -0.099193
H       0.013764    1.677322   -1.452317
H      -0.610827    2.048109    0.158651
H      -1.470227   -0.483062   -1.555781
H      -1.315184   -1.677377   -0.260255
H      -2.107261   -0.126344    0.055381
H       1.179409   -1.856301   -0.672089
H       2.207543   -0.361694   -0.555191
H       0.211483   -1.427444    1.560546
H       2.982402    1.304975    0.977819
H       3.365835    1.180465    2.693357
H       3.556922   -0.229299    1.640106
H       1.139031    2.082089    3.370904
H      -0.379563    1.209419    2.869611
H       0.530597   -0.942088    3.819134
H       2.057120   -0.085148    4.317804
