18

C      -1.379289    0.976341   -0.755288
C      -0.225397    0.152803   -0.184264
O      -0.616208   -1.148261    0.257799
C      -1.286890   -1.199322    1.495774
C      -2.801671   -1.068908    1.365143
O      -3.525444   -0.776820    2.279155
C       0.897328    0.012292   -1.228746
N       1.366367   -1.245885   -1.403201
O       1.316995    0.991267   -1.816020
H      -0.974982    1.899667   -1.174301
H      -1.885302    0.422752   -1.551732
H      -2.110833    1.232870    0.016668
H       0.222407    0.695562    0.662909
H      -1.088715   -2.189470    1.929042
H      -0.917070   -0.448911    2.207889
H      -3.185410   -1.302224    0.346480
H       0.944302   -2.013505   -0.910802
H       2.091266   -1.402468   -2.082911
