15

C      -0.110150    1.612086   -0.018795
C       0.018753    0.087678   -0.029534
C       0.943225   -0.447186   -1.181269
N       2.126936   -0.994610   -0.510011
C       1.910119   -0.872306    0.731060
O       0.763745   -0.305918    1.174257
C      -1.286001   -0.563860   -0.001288
C      -2.366950   -1.087978   -0.015884
H       0.885258    2.065256   -0.025841
H      -0.657279    1.946941   -0.904532
H      -0.647339    1.946411    0.871475
H       0.450279   -1.225996   -1.769149
H       1.230683    0.358890   -1.864309
H       2.582961   -1.188927    1.520676
H      -3.320288   -1.556674   -0.020235
