18

O      -0.073246    1.481099    0.084135
C       0.030741    0.076318    0.018861
C       0.532070   -0.543674    1.379966
C      -0.753397   -0.764468    2.177485
C      -1.768376   -0.804035    1.321234
C      -3.171995   -0.346156    1.008959
N      -2.946501    1.085452    0.607364
C      -2.733456    0.005654   -0.384800
C      -1.339532   -0.622492   -0.118863
H      -0.915632    1.687682    0.519139
H       0.727741   -0.147195   -0.795663
H       1.091041   -1.475207    1.210310
H       1.211881    0.155717    1.877658
H      -0.791671   -0.774221    3.260417
H      -4.135959   -0.656820    1.389289
H      -3.860690    1.496591    0.417870
H      -3.298234   -0.008523   -1.308366
H      -1.264597   -1.578908   -0.650629
