18

C       0.093991    1.474822    0.085102
C       0.000947   -0.052045    0.022792
C      -1.475974   -0.529491    0.017772
C      -2.273661   -0.057624    1.141246
C      -2.946680    0.335886    2.055632
C       0.764774   -0.642459   -1.204519
O       1.798354   -1.472124   -0.628358
C       1.629773   -1.367703    0.712038
N       0.705466   -0.643414    1.183156
H       1.140892    1.791560    0.087205
H      -0.402736    1.929315   -0.779599
H      -0.382568    1.846105    0.994393
H      -1.939829   -0.198904   -0.921716
H      -1.482294   -1.626213   -0.000339
H      -3.533466    0.675802    2.872553
H       0.139899   -1.272567   -1.845143
H       1.244460    0.125060   -1.818000
H       2.339541   -1.944503    1.295101
