19

C      -0.049063    1.502268   -0.092891
C       0.069757    0.008546    0.093642
O       0.531041   -0.616012   -1.116822
C       1.452038   -1.560460   -0.803141
O       1.969704   -2.279982   -1.605856
C       1.671541   -1.516243    0.713920
C       1.000186   -2.729840    1.373033
C       3.153739   -1.420410    1.056190
O       1.022331   -0.294335    1.083968
H       0.920915    1.917825   -0.376020
H      -0.782413    1.728767   -0.870562
H      -0.374242    1.960224    0.844845
H      -0.905294   -0.444629    0.334952
H       1.464988   -3.653946    1.019505
H       1.111240   -2.666927    2.458883
H      -0.067309   -2.773050    1.136777
H       3.586669   -0.512210    0.629961
H       3.290550   -1.396477    2.140799
H       3.681421   -2.285824    0.648227
