21

C       0.072653    1.473096    0.043335
C      -0.028270   -0.054086    0.025106
C      -1.470979   -0.537800    0.000730
O      -1.477480   -1.955173   -0.012578
C      -2.766042   -2.516426   -0.040889
C      -2.572444   -4.045276    0.021663
N      -1.846786   -4.525430    1.198796
C      -3.878811   -4.709209   -0.074214
N      -4.924226   -5.195370   -0.144265
H       1.117339    1.795579    0.059468
H      -0.397436    1.915540   -0.841758
H      -0.418946    1.896052    0.926258
H       0.489724   -0.459827   -0.851280
H       0.467066   -0.478501    0.906076
H      -2.019127   -0.166552    0.883139
H      -1.992864   -0.150345   -0.890150
H      -3.367398   -2.182206    0.821108
H      -3.307162   -2.233871   -0.958206
H      -1.988459   -4.331505   -0.862489
H      -1.000925   -3.966583    1.274957
H      -2.394114   -4.339516    2.035522
