19

C       0.037519    1.401197    0.136479
O       0.016521   -0.009387    0.055773
C       0.618296   -0.536358   -1.040064
C       1.267367    0.075883   -2.095508
N       1.698199   -0.936187   -2.902580
C       2.339995   -0.819251   -4.191086
N       1.351926   -2.148316   -2.433949
C       0.697561   -1.926761   -1.293947
C       0.166714   -3.042109   -0.454472
H       1.067347    1.783647    0.173024
H      -0.478062    1.857636   -0.720242
H      -0.481250    1.674342    1.056938
H       1.458420    1.109534   -2.329790
H       3.070327   -0.005684   -4.172333
H       2.851874   -1.759764   -4.396587
H       1.615094   -0.626956   -4.991263
H       0.615337   -3.040540    0.545249
H      -0.917110   -2.958715   -0.317565
H       0.384991   -3.999683   -0.931889
