18

C      -0.424031    1.585908    0.230565
C       0.097152    0.159960   -0.029772
C       0.836754   -0.443776    1.114142
C       2.152418   -0.752751    1.312019
O       3.163510   -0.586519    0.423683
N       2.394403   -1.260544    2.565835
C       1.214040   -1.281606    3.149981
N       0.942249   -1.808150    4.411601
N       0.239867   -0.794047    2.341563
H       0.402906    2.264475    0.459513
H      -0.957717    1.974340   -0.643046
H      -1.115684    1.609389    1.080002
H      -0.746721   -0.480354   -0.327291
H       0.781034    0.171849   -0.884350
H       3.960461   -0.900076    0.866492
H       0.422306   -1.176351    5.009750
H       1.810200   -2.066959    4.863843
H      -0.748386   -0.837458    2.522403
