13

C      -0.159539    1.368329   -0.092865
O       0.177924    0.005323    0.085096
C       0.703824   -0.599325   -1.086961
C       1.251938   -1.908277   -0.723319
C       1.724841   -2.975127   -0.444651
C      -0.300882   -0.722428   -2.158698
C      -1.124065   -0.793716   -3.030405
H       0.716037    1.962938   -0.396514
H      -0.950568    1.499240   -0.842810
H      -0.516438    1.728205    0.873943
H       1.531056    0.023431   -1.474365
H       2.134842   -3.922054   -0.192846
H      -1.850960   -0.871074   -3.801241
