17

C      -0.037952    1.558511    0.192222
C       0.036527    0.036368    0.023597
O       0.700728   -0.585291    1.109433
C      -1.334316   -0.561605   -0.140987
O      -2.097600   -0.785994    1.053100
C      -1.870367   -1.886538    0.160894
C      -2.889004   -1.752825   -1.041468
O      -3.680490   -0.586424   -0.830280
C      -2.361554   -0.423184   -1.345148
H       0.966884    1.961861    0.338656
H      -0.481349    2.035629   -0.688325
H      -0.649459    1.816794    1.062902
H       0.630840   -0.200452   -0.868294
H       0.063279   -0.605673    1.835351
H      -1.399704   -2.780606    0.548986
H      -3.275824   -2.538673   -1.677516
H      -2.227499    0.106387   -2.280229
