13

O       0.190932    1.401163    0.159821
C       0.064402    0.021267    0.026498
C      -1.448549   -0.430465   -0.003626
N      -1.157679   -1.039042   -1.322843
C       0.114536   -0.580631   -1.391347
N       0.706122   -0.752361   -2.519144
O      -0.326412   -1.410354   -3.284247
C      -1.512229   -1.544107   -2.565004
O      -2.526113   -2.009817   -2.990840
H       1.123401    1.638247    0.109834
H       0.669975   -0.539181    0.748305
H      -1.763283   -1.146750    0.755498
H      -2.130906    0.419071   -0.057207
