15

N       0.012037    1.393890    0.158016
C      -0.032382    0.003832    0.046848
C      -1.110992   -0.840982    0.037361
N      -0.555261   -2.126133   -0.012188
C       0.780448   -1.963097   -0.030499
O       1.560937   -3.067116   -0.086799
C       2.916363   -2.894720   -0.005431
N       3.645925   -3.916255   -0.090764
N       1.152165   -0.709124   -0.000130
H       0.878544    1.761279   -0.212783
H      -0.779082    1.858776   -0.265976
H      -2.173642   -0.679519    0.066661
H      -1.041326   -3.005884   -0.030641
H       3.200222   -1.850088    0.129372
H       4.624141   -3.645413   -0.008467
