15

N      -0.087927    1.294225   -0.265777
C      -0.152317   -0.078240   -0.127833
C      -1.176912   -0.932709    0.059241
C      -2.646922   -0.675557    0.082413
O      -3.005515    0.392925   -0.792792
N      -0.567064   -2.196590    0.253184
C       0.791936   -2.099425    0.158126
O       1.650190   -2.934348    0.242684
O       1.044934   -0.745964   -0.083532
H       0.626368    1.595423   -0.917712
H      -0.996978    1.677624   -0.496214
H      -3.191877   -1.600488   -0.166152
H      -3.001820   -0.356588    1.070366
H      -2.748458    0.125443   -1.682716
H      -1.027105   -3.070894    0.433099
