16

C       0.019269    1.401704   -0.073711
O      -0.081894   -0.014148    0.062285
C       0.610146   -0.543986    1.164009
C       0.724277   -2.098072    1.038426
N       2.176582   -1.926181    0.944376
C       2.185889   -0.559680    0.980379
O       3.045589    0.269936    0.868184
C       0.151037   -0.048107    2.453710
C      -0.213156    0.365965    3.521992
H       1.063311    1.717652   -0.172102
H      -0.531109    1.656888   -0.981145
H      -0.433637    1.915055    0.783312
H       0.390090   -2.664815    1.910084
H       0.248961   -2.464557    0.125119
H       2.913692   -2.583648    0.737607
H      -0.532044    0.734731    4.465976
