25

C      -0.209332    1.443822   -0.024565
C       0.032469   -0.061568    0.011550
C       1.232534   -0.575372   -0.840805
C       2.127279   -0.361942    0.416355
C       0.827509   -0.590412    1.243985
C       0.546941   -2.093575    1.407284
C       1.070131   -2.905555    0.192627
C       0.360031   -4.253031    0.044949
C       1.037574   -2.075357   -1.118152
H       0.706313    2.015859    0.157399
H      -0.602091    1.753447   -0.999704
H      -0.939379    1.740933    0.736868
H      -0.915658   -0.581820   -0.176402
H       1.479155   -0.021264   -1.751572
H       2.973018   -1.035834    0.575800
H       2.485063    0.666409    0.493283
H       0.713703   -0.049687    2.188452
H       1.013525   -2.480776    2.321498
H      -0.535219   -2.240488    1.527761
H       2.126543   -3.119720    0.396319
H      -0.707821   -4.114145   -0.161513
H       0.784050   -4.838413   -0.778449
H       0.446498   -4.850947    0.958988
H       0.079631   -2.217657   -1.637058
H       1.813548   -2.451070   -1.796470
