21

C      -0.168564    1.510746    0.117064
N       0.137178    0.089197   -0.038209
C       0.754316   -0.525246    1.128991
C      -0.154996   -0.554668    2.300808
N      -0.938460   -0.533680    3.150982
C       1.258579   -1.953371    0.817366
C       2.264352   -1.961499   -0.331674
O       1.822762   -2.419556    2.028224
C       1.875193   -3.823123    2.161059
H       0.765038    2.068371    0.246757
H      -0.649041    1.870932   -0.796218
H      -0.825091    1.737592    0.971215
H      -0.711764   -0.417064   -0.271412
H       1.629544    0.074738    1.407688
H       0.384349   -2.572752    0.552750
H       1.823005   -1.519957   -1.227016
H       3.150993   -1.381768   -0.055628
H       2.580220   -2.982392   -0.562859
H       2.261425   -4.033049    3.160884
H       0.876371   -4.274395    2.064876
H       2.542350   -4.290067    1.422540
