18

C      -0.032057    1.547075    0.087274
C       1.533581    1.466841   -0.011064
C       2.019963    1.254552    1.398875
C       1.549363    0.155341    1.992859
C       0.792494   -0.777722    1.083955
C       1.803310   -1.179617   -0.049208
C       1.339896    0.080318   -0.783244
C      -0.026410    0.021750   -0.032494
H      -0.452403    2.032092    0.972603
H      -0.466916    1.981923   -0.818833
H       2.053680    2.261894   -0.546120
H       2.632698    1.999479    1.895329
H       1.755159   -0.115045    3.023085
H       0.265366   -1.576850    1.605901
H       2.851754   -1.300496    0.236959
H       1.460254   -2.065458   -0.594023
H       1.426205    0.162887   -1.868136
H      -0.897494   -0.515796   -0.411327
