15

C      -0.189861    1.357493    0.202137
C       0.016091   -0.101799   -0.002411
N      -0.293258   -0.779638   -1.030883
C       0.123823   -2.159326   -0.774511
C       0.584718   -2.139157    0.722152
O       0.614655   -0.748858    1.044954
C      -0.401039   -2.876967    1.610959
O      -1.190422   -2.351126    2.346722
H       0.766701    1.848693    0.405862
H      -0.645145    1.792378   -0.686689
H      -0.834876    1.525331    1.069906
H      -0.705105   -2.854093   -0.948251
H       0.935547   -2.443612   -1.452848
H       1.583673   -2.565614    0.863009
H      -0.352662   -3.984891    1.489402
