15

O       0.062765    0.100502    0.680773
C       0.009305    1.161921    0.124363
C      -1.279819    1.963499    0.030916
C      -1.246799    3.144464   -0.883062
C      -0.101756    3.607425   -1.393858
C       1.214234    2.941487   -1.075130
O       1.127299    1.658826   -0.451375
C      -0.018628    4.748386   -2.235517
C       0.118602    5.708471   -2.949915
H      -2.065991    1.255568   -0.254759
H      -1.538239    2.271004    1.054493
H      -2.185787    3.636000   -1.115812
H       1.788022    2.790856   -1.995318
H       1.814865    3.592255   -0.425692
H       0.217529    6.558712   -3.578723
