22

C       0.098849    1.598574   -0.039347
C       0.020605    0.069853   -0.016954
C       0.767703   -0.552621    1.154197
C       0.720456   -2.095730    1.230440
C       2.120485   -2.481166    1.768777
C       2.843048   -1.120953    1.925754
C       4.319324   -1.119144    1.570479
O       2.151714   -0.235750    1.052806
H       1.140132    1.927904   -0.083154
H      -0.429520    2.009527   -0.904997
H      -0.350933    2.030149    0.861979
H      -1.026150   -0.255445    0.032801
H       0.437192   -0.342573   -0.944455
H       0.374601   -0.133114    2.099002
H      -0.094054   -2.443447    1.871070
H       0.555582   -2.515923    0.233592
H       2.077514   -3.024868    2.716115
H       2.656070   -3.112721    1.053611
H       2.716457   -0.767311    2.964602
H       4.462202   -1.458870    0.539767
H       4.738921   -0.113437    1.663006
H       4.874392   -1.786296    2.237386
