13

N       0.118729    1.343661   -0.091885
C      -0.041338   -0.012397   -0.042909
C      -1.107748   -0.880342   -0.032775
C      -2.508376   -0.532636    0.033234
O      -3.443258   -1.303086    0.042688
N      -0.599485   -2.198961   -0.081531
C       0.666178   -2.037797   -0.107885
O       1.648414   -2.931875   -0.145305
O       1.109021   -0.742660   -0.089445
H       0.975122    1.688176    0.319057
H      -0.694752    1.880678    0.167536
H      -2.681509    0.571883    0.081594
H       1.231017   -3.803387   -0.149575
