12

N       0.083434    1.412382    0.054701
C      -0.010718    0.046311   -0.038888
N      -1.197259   -0.481648   -0.080584
O      -1.227844   -1.877726   -0.295689
C      -0.120060   -2.644918   -0.408152
O      -0.193825   -3.828082   -0.591763
C       1.153229   -1.876920   -0.276308
O       2.248658   -2.616608   -0.343157
N       1.208693   -0.606071   -0.108969
H       0.924261    1.750503    0.495615
H      -0.767149    1.886664    0.317451
H       3.007293   -2.019288   -0.249951
