15

N       0.086590    1.445473    0.538600
C       0.092950    0.184591    0.288531
C      -1.265058   -0.467196    0.305829
O      -1.471121   -1.636196    0.095861
N       1.162509   -0.618972    0.045565
C       1.285627   -1.979667   -0.516283
C       2.771471   -1.644677   -0.750236
O       3.712716   -2.236131   -1.174761
C       2.546472   -0.213217   -0.207197
H       1.025781    1.847827    0.521559
H      -2.064381    0.262601    0.534701
H       1.088477   -2.793282    0.187722
H       0.713139   -2.162009   -1.431930
H       2.663679    0.577920   -0.961361
H       3.128788    0.050330    0.684219
