12

N       0.043212    1.383862    0.148425
C      -0.078339    0.021205    0.053045
C      -1.145115   -0.831865    0.042803
C      -0.529554   -2.115593    0.003440
N       0.790560   -2.045603   -0.010871
O       1.070019   -0.669959    0.020722
C      -1.183284   -3.375088   -0.020555
C      -1.770447   -4.424067   -0.040614
H       0.926233    1.747663   -0.180661
H      -0.750344    1.908241   -0.186680
H      -2.195425   -0.600944    0.065925
H      -2.276340   -5.357893   -0.058011
