19

C       0.051212    1.515825   -0.090003
C      -0.084742    0.020501   -0.040448
O       0.325838   -0.644749   -1.228224
C      -0.511201   -1.790337   -0.817001
C       0.408740   -2.687851   -0.036003
C       0.959527   -2.075076    1.016272
C       0.373967   -0.727591    1.333322
C      -1.150712   -0.968282    1.604590
C      -1.371606   -0.823549    0.097966
H       1.106364    1.795206   -0.185620
H      -0.490145    1.924867   -0.948277
H      -0.339358    1.974018    0.823820
H      -1.006212   -2.248664   -1.673706
H       0.670202   -3.679938   -0.384249
H       1.734761   -2.510435    1.637976
H       0.940127   -0.145336    2.060975
H      -1.417722   -1.903484    2.102267
H      -1.609951   -0.125421    2.130841
H      -2.336939   -0.534202   -0.320778
