27

C       0.107629    1.513892    0.051958
C      -0.058256   -0.016330   -0.005676
C      -1.553035   -0.356886   -0.066691
C       0.712566   -0.589533   -1.223542
C       2.140799   -0.809085   -0.713434
C       1.965973   -1.363074    0.724808
C       1.794774   -2.893259    0.684327
C       3.164247   -1.015837    1.617908
C       0.647234   -0.683807    1.220071
H       1.162124    1.807974    0.076375
H      -0.352028    1.993023   -0.820029
H      -0.368729    1.925042    0.949023
H      -2.022217    0.075584   -0.958153
H      -1.710744   -1.440501   -0.098809
H      -2.086320    0.032189    0.808300
H       0.270804   -1.546542   -1.526699
H       0.662569    0.071223   -2.095485
H       2.727531   -1.480769   -1.349018
H       2.679133    0.145950   -0.681513
H       2.700208   -3.381009    0.305510
H       1.595103   -3.290737    1.685742
H       0.961082   -3.192242    0.040426
H       3.311114    0.068069    1.678791
H       3.022921   -1.391282    2.637933
H       4.089534   -1.457044    1.229259
H       0.861644    0.065188    1.989827
H      -0.008857   -1.424372    1.689751
