18

C      -0.059124    1.537054    0.014176
C       0.059860    0.031297    0.044671
C       1.361307   -0.707301   -0.182378
O       2.569742    0.014698   -0.064073
C       2.717107    0.456840    1.232500
O       3.610120    1.170425    1.592025
N       1.675914   -0.057101    1.974324
C       0.712895   -0.763650    1.178006
C       0.073539   -1.979201    1.797251
H       0.804535    2.033260    0.461787
H      -0.142535    1.894805   -1.016946
H      -0.951563    1.865809    0.556832
H      -0.784987   -0.495702   -0.393787
H       1.442082   -1.548507   -0.860092
H       1.475381    0.351316    2.872062
H      -0.602635   -1.699996    2.613718
H      -0.517517   -2.522879    1.055036
H       0.833609   -2.656074    2.200021
