17

C      -0.032352    1.542518    0.075927
C      -0.212916    0.076283   -0.306954
C       0.964395   -0.488719   -1.067097
O       1.940774    0.164317   -1.350331
C       0.937067   -1.969395   -1.471899
C       1.938596   -2.399769   -2.487231
O       2.144948   -2.678738   -1.124140
C      -0.274903   -2.844975   -1.372032
O      -1.416766   -2.466622   -1.312271
H       0.849523    1.680199    0.706663
H       0.102868    2.165032   -0.812221
H      -0.908829    1.902957    0.620748
H      -0.371471   -0.556786    0.577745
H      -1.111436   -0.088985   -0.912566
H       1.717523   -3.257696   -3.121507
H       2.560536   -1.612947   -2.906702
H      -0.006130   -3.924244   -1.373482
