20

C       0.426693    0.723058   -0.459947
O      -0.105369   -0.494874    0.009293
C      -1.496922   -0.463179    0.260730
C      -2.332829   -0.615938   -1.024774
O      -2.445830   -2.021871   -1.256776
C      -2.191847   -2.722424   -0.099698
C      -1.864571   -1.744775    1.008597
N      -2.233874   -3.973558    0.015976
C      -2.584361   -4.796621   -1.130043
H       1.504319    0.581447   -0.568218
H       0.015530    1.017997   -1.436956
H       0.244039    1.543734    0.251479
H      -1.763290    0.452103    0.807917
H      -3.333704   -0.181543   -0.900113
H      -1.860254   -0.163142   -1.899764
H      -1.054035   -2.103545    1.641629
H      -2.750560   -1.587338    1.633014
H      -2.788505   -4.235179   -2.048475
H      -1.768867   -5.502882   -1.323990
H      -3.467449   -5.397111   -0.881978
