17

C      -0.008115    1.408053   -0.130251
N       0.040835   -0.043823   -0.103403
C      -1.050041   -0.669267    0.040348
N      -2.335019   -0.173918    0.240997
C      -3.403546   -1.136338    0.023497
C      -2.628532   -2.415031   -0.287712
O      -3.046515   -3.410144   -0.819011
C      -1.169843   -2.188499    0.094874
O      -0.275453   -2.898418   -0.702244
H       0.976655    1.799505   -0.396391
H      -0.728992    1.800633   -0.867195
H      -0.276773    1.829972    0.850641
H      -2.514203    0.813025    0.166036
H      -4.039716   -1.276785    0.908515
H      -4.057560   -0.889307   -0.821995
H      -1.080163   -2.475290    1.162091
H      -0.775315   -3.643672   -1.065257
