20

C       0.264501    1.506623   -0.058341
N      -0.026629    0.075481    0.034983
C      -0.319152   -0.555746   -1.186289
C      -0.262462   -1.833474   -1.578246
C       0.140909   -3.076519   -0.841836
C       0.616107   -2.866967    0.595452
C      -0.351492   -1.976035    1.398972
C      -0.026556   -0.497153    1.299273
O       0.236136    0.158976    2.291953
H       1.187002    1.679290   -0.622874
H      -0.556606    2.027687   -0.563035
H       0.379220    1.893617    0.951517
H      -0.638349    0.172913   -1.926880
H      -0.583977   -1.998125   -2.603740
H      -0.717985   -3.765094   -0.836116
H       0.916467   -3.597460   -1.420575
H       0.706158   -3.841041    1.086482
H       1.618209   -2.423256    0.607475
H      -1.381210   -2.152602    1.063027
H      -0.305072   -2.202540    2.464963
