18

C      -0.032316    1.517792    0.130163
C       0.040328    0.019642   -0.061435
O       1.070584   -0.561089   -0.301736
C      -1.290486   -0.762740   -0.004162
C      -1.854928   -0.923093   -1.476436
C      -1.264838   -2.354967   -1.515360
C      -1.080988   -2.312132    0.023250
C      -2.216901   -0.207620    0.967328
N      -2.960542    0.225574    1.740623
H       0.926535    1.966278   -0.130232
H      -0.834394    1.953372   -0.474736
H      -0.273454    1.742914    1.174667
H      -2.945989   -0.904989   -1.474386
H      -1.489288   -0.197844   -2.206786
H      -1.918253   -3.133412   -1.911658
H      -0.307450   -2.392646   -2.036994
H      -0.112857   -2.623490    0.413826
H      -1.884663   -2.811762    0.566158
