17

C      -0.478165    1.578602   -0.014701
C      -0.075747    0.132763    0.056206
C      -1.123162   -0.987761    0.223011
O      -0.298854   -1.650980    1.220152
C       0.690670   -0.618839    1.168983
C       1.769288   -0.877226    0.084170
O       0.932313   -0.228503   -0.920609
C       3.041511   -0.202765    0.270821
C       4.084328    0.364111    0.461692
H       0.397513    2.226668    0.075550
H      -0.956217    1.787619   -0.978326
H      -1.187836    1.826114    0.780533
H      -2.083231   -0.676006    0.652778
H      -1.288489   -1.601739   -0.668014
H       1.000907   -0.250753    2.147693
H       1.909326   -1.941608   -0.135412
H       5.012341    0.857034    0.617006
