14

C      -0.088893    1.437678    0.151844
N      -0.061015    0.012332   -0.135245
C      -1.169795   -0.762520   -0.055972
N      -1.231209   -2.059641    0.016266
C      -2.603315   -2.316584    0.004816
C      -3.293693   -1.151155   -0.064932
O      -2.375311   -0.133105   -0.102162
C      -3.144347   -3.627719    0.065043
N      -3.604069   -4.688614    0.114120
H       0.877579    1.863991   -0.122270
H      -0.859227    1.920648   -0.452774
H      -0.287256    1.660442    1.208907
H       0.786958   -0.491729    0.071373
H      -4.333177   -0.878661   -0.088383
