16

N       0.030811    1.242242    0.589307
C      -0.072325   -0.058102    0.107022
C      -1.056714   -0.671805   -0.597817
O      -0.682697   -2.002598   -0.751979
C       0.500673   -2.087609   -0.125441
N       0.923906   -0.979779    0.409043
N       1.153097   -3.303074   -0.192559
C       1.982021   -3.697811    0.937498
C       0.702732   -4.410350    0.661120
H       0.996321    1.503625    0.738594
H      -0.445725    1.929748    0.022593
H      -1.999561   -0.383026   -1.024072
H       2.928687   -4.156510    0.670412
H       2.012265   -3.018448    1.783747
H      -0.134363   -4.219214    1.326641
H       0.704650   -5.384349    0.182977
