20

C      -0.135992    1.540321   -0.004929
C       0.021543    0.017450    0.023691
C       0.769575   -0.462118   -1.216765
O       1.048532   -1.872796   -1.244656
C       1.334351   -2.566286   -0.117952
O       1.870745   -3.638939   -0.208589
C       0.856139   -2.008212    1.237496
N       1.615640   -2.525699    2.367993
C       0.769375   -0.482253    1.261782
H       0.840139    2.038477    0.007097
H      -0.670494    1.871610   -0.901319
H      -0.697688    1.887472    0.867218
H      -0.977935   -0.439362    0.015741
H       0.198276   -0.267464   -2.128316
H       1.727623    0.069819   -1.302335
H      -0.170604   -2.396513    1.329526
H       1.749274   -3.524020    2.223190
H       2.553093   -2.129715    2.344960
H       1.782153   -0.052141    1.275753
H       0.278631   -0.163813    2.186512
