20

C      -0.105710    1.378864   -0.379428
C       1.198069    1.695427    0.400055
C       1.378521    0.183105    0.730970
C       1.367469   -0.175509    2.224168
C       0.008848    0.016315    2.851422
C      -1.111081   -0.256076    2.181136
C      -1.073965   -0.769212    0.762893
C       0.059411   -0.137324   -0.058363
H      -1.006268    1.825553    0.051441
H      -0.079604    1.622676   -1.444485
H       2.002950    2.127746   -0.199733
H       1.052532    2.325866    1.281849
H       2.267917   -0.247682    0.262727
H       1.676198   -1.224691    2.349057
H       2.123940    0.420507    2.749026
H      -0.037155    0.360030    3.881362
H      -2.079952   -0.136807    2.658730
H      -0.946131   -1.862411    0.779278
H      -2.032755   -0.590407    0.261185
H       0.236896   -0.740661   -0.952980
