16

O       0.082428    1.254110    0.631614
C      -0.005762    0.090948   -0.186902
C      -1.390482   -0.460267   -0.085526
C      -1.731314   -1.802746    0.038225
N      -3.111821   -1.872372    0.066639
C      -3.641321   -0.617632   -0.025570
C      -2.600021    0.278661   -0.124408
C      -0.924602   -2.952745    0.126127
C      -0.241085   -3.943774    0.203207
H       0.938151    1.661722    0.466957
H       0.221689    0.345591   -1.235807
H       0.717405   -0.679087    0.120835
H      -3.629777   -2.729060    0.156042
H      -4.708330   -0.463118   -0.009157
H      -2.683503    1.351184   -0.196943
H       0.367841   -4.810425    0.273290
