15

O       0.129331    1.435528   -0.077052
C       0.026694    0.033617    0.076998
C      -1.380893   -0.455585   -0.099387
C      -1.822408   -1.387323   -0.963525
N      -3.154121   -1.775235   -1.005078
C      -3.963204   -1.180612   -0.202343
C      -3.582033   -0.125654    0.744519
N      -4.309517    0.538044    1.542517
O      -2.229871    0.166289    0.758227
H      -0.460753    1.839153    0.569622
H       0.664143   -0.423546   -0.683584
H       0.393433   -0.291155    1.064586
H      -1.146508   -1.872876   -1.654857
H      -5.014671   -1.465086   -0.211825
H      -5.280929    0.242507    1.458202
