16

C      -0.299967    1.284425    0.316119
C      -0.001773   -0.130706   -0.101033
O       1.097890   -0.555645   -0.372079
C      -1.208171   -1.094718   -0.171365
O      -2.314315   -0.738081    0.149009
C      -0.883763   -2.512422   -0.633573
O      -2.037119   -3.265121   -0.921052
C      -2.766736   -3.697601    0.135186
N      -3.834675   -4.332855   -0.067298
H       0.623315    1.862774    0.348417
H      -1.009349    1.737037   -0.384822
H      -0.793245    1.291376    1.293257
H      -0.285857   -2.472305   -1.546922
H      -0.249909   -2.989460    0.129469
H      -2.317413   -3.455890    1.107223
H      -4.252693   -4.604784    0.819747
